1
    SWAT Mar 17 2015    VER 2012/Rev 636_smrt                                                            0/ 0/   0      0: 0: 0

    General Input/Output section (file.cio):                                        
    4/9/2015 12:00:00 AM ARCGIS-SWAT interface AV                                   
                                                                                    


LULC  HRU       GIS  SUB  MGT  MON   AREAkm2  PRECIPmm
AGRL    1 000010001    1    0    1.80640E+00     1.100
AGRL    1 000010001    1    0    2.80640E+00    16.900
AGRL    1 000010001    1    0    3.80640E+00     0.000
AGRL    1 000010001    1    0    4.80640E+00     0.100
AGRL    1 000010001    1    0    5.80640E+00     0.400
AGRL    1 000010001    1    0    6.80640E+00     0.000
AGRL    1 000010001    1    0    7.80640E+00     0.000
AGRL    1 000010001    1    0    8.80640E+00     0.000
AGRL    1 000010001    1    0    9.80640E+00     1.900
AGRL    1 000010001    1    0   10.80640E+00     0.000
AGRL    1 000010001    1    0   11.80640E+00     0.000
AGRL    1 000010001    1    0   12.80640E+00     1.200
AGRL    1 000010001    1    0   13.80640E+00     0.200
AGRL    1 000010001    1    0   14.80640E+00     0.000
AGRL    1 000010001    1    0   15.80640E+00     0.000
AGRL    1 000010001    1    0   16.80640E+00    10.800
AGRL    1 000010001    1    0   17.80640E+00     0.000
AGRL    1 000010001    1    0   18.80640E+00     0.000
AGRL    1 000010001    1    0   19.80640E+00     0.000
AGRL    1 000010001    1    0   20.80640E+00     0.200
AGRL    1 000010001    1    0   21.80640E+00     0.000
AGRL    1 000010001    1    0   22.80640E+00     0.000
AGRL    1 000010001    1    0   23.80640E+00     0.000
AGRL    1 000010001    1    0   24.80640E+00     0.000
AGRL    1 000010001    1    0   25.80640E+00     0.000
AGRL    1 000010001    1    0   26.80640E+00     0.000
AGRL    1 000010001    1    0   27.80640E+00    14.400
AGRL    1 000010001    1    0   28.80640E+00     0.100
AGRL    1 000010001    1    0   29.80640E+00     0.300
AGRL    1 000010001    1    0   30.80640E+00     0.600
AGRL    1 000010001    1    0   31.80640E+00     2.600
AGRL    1 000010001    1    0   32.80640E+00     1.100
AGRL    1 000010001    1    0   33.80640E+00     0.100
AGRL    1 000010001    1    0   34.80640E+00     0.200
AGRL    1 000010001    1    0   35.80640E+00     8.000
AGRL    1 000010001    1    0   36.80640E+00     0.600
AGRL    1 000010001    1    0   37.80640E+00     0.800
AGRL    1 000010001    1    0   38.80640E+00     0.300
AGRL    1 000010001    1    0   39.80640E+00     0.200
AGRL    1 000010001    1    0   40.80640E+00     1.500
AGRL    1 000010001    1    0   41.80640E+00    12.000
AGRL    1 000010001    1    0   42.80640E+00     0.100
AGRL    1 000010001    1    0   43.80640E+00     0.000
AGRL    1 000010001    1    0   44.80640E+00     0.000
AGRL    1 000010001    1    0   45.80640E+00     0.000
AGRL    1 000010001    1    0   46.80640E+00     0.000
AGRL    1 000010001    1    0   47.80640E+00     0.000
AGRL    1 000010001    1    0   48.80640E+00     0.400
AGRL    1 000010001    1    0   49.80640E+00     1.700
AGRL    1 000010001    1    0   50.80640E+00     0.600
AGRL    1 000010001    1    0   51.80640E+00     5.000
AGRL    1 000010001    1    0   52.80640E+00     3.000
AGRL    1 000010001    1    0   53.80640E+00     1.600
AGRL    1 000010001    1    0   54.80640E+00    17.100
AGRL    1 000010001    1    0   55.80640E+00     0.100
AGRL    1 000010001    1    0   56.80640E+00     0.100
AGRL    1 000010001    1    0   57.80640E+00     0.000
AGRL    1 000010001    1    0   58.80640E+00     0.000
AGRL    1 000010001    1    0   59.80640E+00    10.700
AGRL    1 000010001    1    0   60.80640E+00     0.900
AGRL    1 000010001    1    0   61.80640E+00     0.000
AGRL    1 000010001    1    0   62.80640E+00     2.700
AGRL    1 000010001    1    0   63.80640E+00     6.200
AGRL    1 000010001    1    0   64.80640E+00     0.000
AGRL    1 000010001    1    0   65.80640E+00     0.100
AGRL    1 000010001    1    0   66.80640E+00     1.800
AGRL    1 000010001    1    0   67.80640E+00     1.000
AGRL    1 000010001    1    0   68.80640E+00     0.300
AGRL    1 000010001    1    0   69.80640E+00     0.200
AGRL    1 000010001    1    0   70.80640E+00     0.300
AGRL    1 000010001    1    0   71.80640E+00     2.200
AGRL    1 000010001    1    0   72.80640E+00     6.500
AGRL    1 000010001    1    0   73.80640E+00    27.400
AGRL    1 000010001    1    0   74.80640E+00     0.400
AGRL    1 000010001    1    0   75.80640E+00     4.600
AGRL    1 000010001    1    0   76.80640E+00     0.000
AGRL    1 000010001    1    0   77.80640E+00     0.000
AGRL    1 000010001    1    0   78.80640E+00     2.000
AGRL    1 000010001    1    0   79.80640E+00    10.900
AGRL    1 000010001    1    0   80.80640E+00     0.600
AGRL    1 000010001    1    0   81.80640E+00     0.000
AGRL    1 000010001    1    0   82.80640E+00     0.000
AGRL    1 000010001    1    0   83.80640E+00     0.000
AGRL    1 000010001    1    0   84.80640E+00     0.000
AGRL    1 000010001    1    0   85.80640E+00     3.500
AGRL    1 000010001    1    0   86.80640E+00     1.600
AGRL    1 000010001    1    0   87.80640E+00     0.000
AGRL    1 000010001    1    0   88.80640E+00     1.100
AGRL    1 000010001    1    0   89.80640E+00     2.700
AGRL    1 000010001    1    0   90.80640E+00     0.000
AGRL    1 000010001    1    0   91.80640E+00     0.000
AGRL    1 000010001    1    0   92.80640E+00     0.000
AGRL    1 000010001    1    0   93.80640E+00     0.000
AGRL    1 000010001    1    0   94.80640E+00     0.000
AGRL    1 000010001    1    0   95.80640E+00     0.000
AGRL    1 000010001    1    0   96.80640E+00     0.000
AGRL    1 000010001    1    0   97.80640E+00     0.600
AGRL    1 000010001    1    0   98.80640E+00     2.100
AGRL    1 000010001    1    0   99.80640E+00     0.000
AGRL    1 000010001    1    0  100.80640E+00     0.200
AGRL    1 000010001    1    0  101.80640E+00     1.700
AGRL    1 000010001    1    0  102.80640E+00     0.700
AGRL    1 000010001    1    0  103.80640E+00     7.300
AGRL    1 000010001    1    0  104.80640E+00     0.000
AGRL    1 000010001    1    0  105.80640E+00     0.000
AGRL    1 000010001    1    0  106.80640E+00     0.000
AGRL    1 000010001    1    0  107.80640E+00     0.000
AGRL    1 000010001    1    0  108.80640E+00     0.000
AGRL    1 000010001    1    0  109.80640E+00     0.500
AGRL    1 000010001    1    0  110.80640E+00    11.700
AGRL    1 000010001    1    0  111.80640E+00     0.900
AGRL    1 000010001    1    0  112.80640E+00    11.000
AGRL    1 000010001    1    0  113.80640E+00     1.300
AGRL    1 000010001    1    0  114.80640E+00     0.000
AGRL    1 000010001    1    0  115.80640E+00     1.200
AGRL    1 000010001    1    0  116.80640E+00     2.700
AGRL    1 000010001    1    0  117.80640E+00     0.900
AGRL    1 000010001    1    0  118.80640E+00    10.100
AGRL    1 000010001    1    0  119.80640E+00     6.900
AGRL    1 000010001    1    0  120.80640E+00     0.500
AGRL    1 000010001    1    0  121.80640E+00     0.000
AGRL    1 000010001    1    0  122.80640E+00     0.000
AGRL    1 000010001    1    0  123.80640E+00     0.000
AGRL    1 000010001    1    0  124.80640E+00     0.000
AGRL    1 000010001    1    0  125.80640E+00     0.000
AGRL    1 000010001    1    0  126.80640E+00     0.000
AGRL    1 000010001    1    0  127.80640E+00     0.000
AGRL    1 000010001    1    0  128.80640E+00     8.200
AGRL    1 000010001    1    0  129.80640E+00     0.300
AGRL    1 000010001    1    0  130.80640E+00     0.000
AGRL    1 000010001    1    0  131.80640E+00     0.100
AGRL    1 000010001    1    0  132.80640E+00     0.000
AGRL    1 000010001    1    0  133.80640E+00     8.000
AGRL    1 000010001    1    0  134.80640E+00     6.700
AGRL    1 000010001    1    0  135.80640E+00     0.000
AGRL    1 000010001    1    0  136.80640E+00     0.000
AGRL    1 000010001    1    0  137.80640E+00     0.000
AGRL    1 000010001    1    0  138.80640E+00     0.000
AGRL    1 000010001    1    0  139.80640E+00     0.000
AGRL    1 000010001    1    0  140.80640E+00     0.000
AGRL    1 000010001    1    0  141.80640E+00     0.600
AGRL    1 000010001    1    0  142.80640E+00     0.300
AGRL    1 000010001    1    0  143.80640E+00     0.100
AGRL    1 000010001    1    0  144.80640E+00     0.000
AGRL    1 000010001    1    0  145.80640E+00     0.000
AGRL    1 000010001    1    0  146.80640E+00     0.000
AGRL    1 000010001    1    0  147.80640E+00     0.000
AGRL    1 000010001    1    0  148.80640E+00     0.000
AGRL    1 000010001    1    0  149.80640E+00     0.000
AGRL    1 000010001    1    0  150.80640E+00     0.000
AGRL    1 000010001    1    0  151.80640E+00     0.000
AGRL    1 000010001    1    0  152.80640E+00     0.000
AGRL    1 000010001    1    0  153.80640E+00     0.000
AGRL    1 000010001    1    0  154.80640E+00     0.000
AGRL    1 000010001    1    0  155.80640E+00     0.000
AGRL    1 000010001    1    0  156.80640E+00     0.400
AGRL    1 000010001    1    0  157.80640E+00    29.000
AGRL    1 000010001    1    0  158.80640E+00     0.000
AGRL    1 000010001    1    0  159.80640E+00     0.000
AGRL    1 000010001    1    0  160.80640E+00     0.000
AGRL    1 000010001    1    0  161.80640E+00     0.000
AGRL    1 000010001    1    0  162.80640E+00     0.000
AGRL    1 000010001    1    0  163.80640E+00     0.000
AGRL    1 000010001    1    0  164.80640E+00     0.000
AGRL    1 000010001    1    0  165.80640E+00     0.000
AGRL    1 000010001    1    0  166.80640E+00     0.000
AGRL    1 000010001    1    0  167.80640E+00     0.000
AGRL    1 000010001    1    0  168.80640E+00     0.000
AGRL    1 000010001    1    0  169.80640E+00    13.700
AGRL    1 000010001    1    0  170.80640E+00     0.000
AGRL    1 000010001    1    0  171.80640E+00     0.100
AGRL    1 000010001    1    0  172.80640E+00     4.000
AGRL    1 000010001    1    0  173.80640E+00     5.300
AGRL    1 000010001    1    0  174.80640E+00    12.400
AGRL    1 000010001    1    0  175.80640E+00     0.000
AGRL    1 000010001    1    0  176.80640E+00     0.000
AGRL    1 000010001    1    0  177.80640E+00     0.000
AGRL    1 000010001    1    0  178.80640E+00     2.700
AGRL    1 000010001    1    0  179.80640E+00     0.000
AGRL    1 000010001    1    0  180.80640E+00     0.000
AGRL    1 000010001    1    0  181.80640E+00     0.000
AGRL    1 000010001    1    0  182.80640E+00     0.000
AGRL    1 000010001    1    0  183.80640E+00     5.800
AGRL    1 000010001    1    0  184.80640E+00    12.300
AGRL    1 000010001    1    0  185.80640E+00     0.100
AGRL    1 000010001    1    0  186.80640E+00     0.000
AGRL    1 000010001    1    0  187.80640E+00     0.000
AGRL    1 000010001    1    0  188.80640E+00     0.000
AGRL    1 000010001    1    0  189.80640E+00     0.000
AGRL    1 000010001    1    0  190.80640E+00     0.000
AGRL    1 000010001    1    0  191.80640E+00     0.000
AGRL    1 000010001    1    0  192.80640E+00     1.000
AGRL    1 000010001    1    0  193.80640E+00     0.000
AGRL    1 000010001    1    0  194.80640E+00     0.000
AGRL    1 000010001    1    0  195.80640E+00     0.000
AGRL    1 000010001    1    0  196.80640E+00     0.100
AGRL    1 000010001    1    0  197.80640E+00     1.100
AGRL    1 000010001    1    0  198.80640E+00     0.000
AGRL    1 000010001    1    0  199.80640E+00     0.200
AGRL    1 000010001    1    0  200.80640E+00     0.100
AGRL    1 000010001    1    0  201.80640E+00     7.700
AGRL    1 000010001    1    0  202.80640E+00     1.400
AGRL    1 000010001    1    0  203.80640E+00     1.200
AGRL    1 000010001    1    0  204.80640E+00     2.000
AGRL    1 000010001    1    0  205.80640E+00     0.000
AGRL    1 000010001    1    0  206.80640E+00     0.000
AGRL    1 000010001    1    0  207.80640E+00     0.000
AGRL    1 000010001    1    0  208.80640E+00     0.000
AGRL    1 000010001    1    0  209.80640E+00     0.000
AGRL    1 000010001    1    0  210.80640E+00     0.000
AGRL    1 000010001    1    0  211.80640E+00     0.000
AGRL    1 000010001    1    0  212.80640E+00     0.000
AGRL    1 000010001    1    0  213.80640E+00     0.000
AGRL    1 000010001    1    0  214.80640E+00     0.000
AGRL    1 000010001    1    0  215.80640E+00     0.100
AGRL    1 000010001    1    0  216.80640E+00     0.000
AGRL    1 000010001    1    0  217.80640E+00     0.000
AGRL    1 000010001    1    0  218.80640E+00     0.000
AGRL    1 000010001    1    0  219.80640E+00     0.000
AGRL    1 000010001    1    0  220.80640E+00     0.000
AGRL    1 000010001    1    0  221.80640E+00     0.000
AGRL    1 000010001    1    0  222.80640E+00     0.000
AGRL    1 000010001    1    0  223.80640E+00     0.000
AGRL    1 000010001    1    0  224.80640E+00     0.000
AGRL    1 000010001    1    0  225.80640E+00     0.300
AGRL    1 000010001    1    0  226.80640E+00     1.600
AGRL    1 000010001    1    0  227.80640E+00     5.300
AGRL    1 000010001    1    0  228.80640E+00     4.300
AGRL    1 000010001    1    0  229.80640E+00     0.400
AGRL    1 000010001    1    0  230.80640E+00     0.000
AGRL    1 000010001    1    0  231.80640E+00     0.000
AGRL    1 000010001    1    0  232.80640E+00     0.000
AGRL    1 000010001    1    0  233.80640E+00     0.200
AGRL    1 000010001    1    0  234.80640E+00     0.000
AGRL    1 000010001    1    0  235.80640E+00     0.000
AGRL    1 000010001    1    0  236.80640E+00     0.000
AGRL    1 000010001    1    0  237.80640E+00     0.800
AGRL    1 000010001    1    0  238.80640E+00     0.000
AGRL    1 000010001    1    0  239.80640E+00     0.000
AGRL    1 000010001    1    0  240.80640E+00     0.000
AGRL    1 000010001    1    0  241.80640E+00     0.000
AGRL    1 000010001    1    0  242.80640E+00     0.000
AGRL    1 000010001    1    0  243.80640E+00     0.000
AGRL    1 000010001    1    0  244.80640E+00     0.000
AGRL    1 000010001    1    0  245.80640E+00     0.000
AGRL    1 000010001    1    0  246.80640E+00     0.000
AGRL    1 000010001    1    0  247.80640E+00     0.000
AGRL    1 000010001    1    0  248.80640E+00     6.600
AGRL    1 000010001    1    0  249.80640E+00     1.400
AGRL    1 000010001    1    0  250.80640E+00     0.200
AGRL    1 000010001    1    0  251.80640E+00     0.000
AGRL    1 000010001    1    0  252.80640E+00     0.000
AGRL    1 000010001    1    0  253.80640E+00     0.600
AGRL    1 000010001    1    0  254.80640E+00     6.400
AGRL    1 000010001    1    0  255.80640E+00    12.100
AGRL    1 000010001    1    0  256.80640E+00     1.600
AGRL    1 000010001    1    0  257.80640E+00     6.000
AGRL    1 000010001    1    0  258.80640E+00     1.200
AGRL    1 000010001    1    0  259.80640E+00     0.000
AGRL    1 000010001    1    0  260.80640E+00     0.000
AGRL    1 000010001    1    0  261.80640E+00     0.000
AGRL    1 000010001    1    0  262.80640E+00     0.000
AGRL    1 000010001    1    0  263.80640E+00     0.000
AGRL    1 000010001    1    0  264.80640E+00     0.000
AGRL    1 000010001    1    0  265.80640E+00     0.000
AGRL    1 000010001    1    0  266.80640E+00     0.000
AGRL    1 000010001    1    0  267.80640E+00     0.000
AGRL    1 000010001    1    0  268.80640E+00     1.400
AGRL    1 000010001    1    0  269.80640E+00     0.000
AGRL    1 000010001    1    0  270.80640E+00     0.000
AGRL    1 000010001    1    0  271.80640E+00    10.200
AGRL    1 000010001    1    0  272.80640E+00    18.400
AGRL    1 000010001    1    0  273.80640E+00     0.500
AGRL    1 000010001    1    0  274.80640E+00     0.000
AGRL    1 000010001    1    0  275.80640E+00     0.000
AGRL    1 000010001    1    0  276.80640E+00     0.000
AGRL    1 000010001    1    0  277.80640E+00     0.000
AGRL    1 000010001    1    0  278.80640E+00     0.000
AGRL    1 000010001    1    0  279.80640E+00     0.000
AGRL    1 000010001    1    0  280.80640E+00     0.000
AGRL    1 000010001    1    0  281.80640E+00     2.100
AGRL    1 000010001    1    0  282.80640E+00     1.200
AGRL    1 000010001    1    0  283.80640E+00     0.400
AGRL    1 000010001    1    0  284.80640E+00     2.100
AGRL    1 000010001    1    0  285.80640E+00     0.000
AGRL    1 000010001    1    0  286.80640E+00     0.000
AGRL    1 000010001    1    0  287.80640E+00    79.100
AGRL    1 000010001    1    0  288.80640E+00    20.300
AGRL    1 000010001    1    0  289.80640E+00     0.200
AGRL    1 000010001    1    0  290.80640E+00     3.700
AGRL    1 000010001    1    0  291.80640E+00     6.200
AGRL    1 000010001    1    0  292.80640E+00    32.800
AGRL    1 000010001    1    0  293.80640E+00     0.100
AGRL    1 000010001    1    0  294.80640E+00     0.000
AGRL    1 000010001    1    0  295.80640E+00     0.000
AGRL    1 000010001    1    0  296.80640E+00     0.100
AGRL    1 000010001    1    0  297.80640E+00     0.900
AGRL    1 000010001    1    0  298.80640E+00     1.600
AGRL    1 000010001    1    0  299.80640E+00     1.000
AGRL    1 000010001    1    0  300.80640E+00     0.000
AGRL    1 000010001    1    0  301.80640E+00     4.700
AGRL    1 000010001    1    0  302.80640E+00     7.500
AGRL    1 000010001    1    0  303.80640E+00     1.400
AGRL    1 000010001    1    0  304.80640E+00     0.000
AGRL    1 000010001    1    0  305.80640E+00     5.300
AGRL    1 000010001    1    0  306.80640E+00     1.100
AGRL    1 000010001    1    0  307.80640E+00     0.000
AGRL    1 000010001    1    0  308.80640E+00     0.000
AGRL    1 000010001    1    0  309.80640E+00     0.000
AGRL    1 000010001    1    0  310.80640E+00     0.000
AGRL    1 000010001    1    0  311.80640E+00     0.000
AGRL    1 000010001    1    0  312.80640E+00     0.500
AGRL    1 000010001    1    0  313.80640E+00     0.000
AGRL    1 000010001    1    0  314.80640E+00     3.800
AGRL    1 000010001    1    0  315.80640E+00    14.100
AGRL    1 000010001    1    0  316.80640E+00     1.600
AGRL    1 000010001    1    0  317.80640E+00     0.400
AGRL    1 000010001    1    0  318.80640E+00     0.200
AGRL    1 000010001    1    0  319.80640E+00     8.600
AGRL    1 000010001    1    0  320.80640E+00     0.000
AGRL    1 000010001    1    0  321.80640E+00     1.000
AGRL    1 000010001    1    0  322.80640E+00     8.900
AGRL    1 000010001    1    0  323.80640E+00     4.300
AGRL    1 000010001    1    0  324.80640E+00     0.000
AGRL    1 000010001    1    0  325.80640E+00     0.500
AGRL    1 000010001    1    0  326.80640E+00     0.000
AGRL    1 000010001    1    0  327.80640E+00     0.700
AGRL    1 000010001    1    0  328.80640E+00    16.100
AGRL    1 000010001    1    0  329.80640E+00     1.800
AGRL    1 000010001    1    0  330.80640E+00    12.800
AGRL    1 000010001    1    0  331.80640E+00    43.000
AGRL    1 000010001    1    0  332.80640E+00     0.600
AGRL    1 000010001    1    0  333.80640E+00     0.100
AGRL    1 000010001    1    0  334.80640E+00     3.100
AGRL    1 000010001    1    0  335.80640E+00     0.000
AGRL    1 000010001    1    0  336.80640E+00     0.000
AGRL    1 000010001    1    0  337.80640E+00     0.300
AGRL    1 000010001    1    0  338.80640E+00     0.400
AGRL    1 000010001    1    0  339.80640E+00     0.000
AGRL    1 000010001    1    0  340.80640E+00     0.000
AGRL    1 000010001    1    0  341.80640E+00     0.000
AGRL    1 000010001    1    0  342.80640E+00     0.000
AGRL    1 000010001    1    0  343.80640E+00     1.900
AGRL    1 000010001    1    0  344.80640E+00    88.900
AGRL    1 000010001    1    0  345.80640E+00     3.200
AGRL    1 000010001    1    0  346.80640E+00     0.000
AGRL    1 000010001    1    0  347.80640E+00     3.200
AGRL    1 000010001    1    0  348.80640E+00     0.000
AGRL    1 000010001    1    0  349.80640E+00     0.000
AGRL    1 000010001    1    0  350.80640E+00     5.100
AGRL    1 000010001    1    0  351.80640E+00     0.000
AGRL    1 000010001    1    0  352.80640E+00     0.000
AGRL    1 000010001    1    0  353.80640E+00     0.000
AGRL    1 000010001    1    0  354.80640E+00     0.000
AGRL    1 000010001    1    0  355.80640E+00     0.000
AGRL    1 000010001    1    0  356.80640E+00     0.000
AGRL    1 000010001    1    0  357.80640E+00     0.000
AGRL    1 000010001    1    0  358.80640E+00     0.000
AGRL    1 000010001    1    0  359.80640E+00     0.000
AGRL    1 000010001    1    0  360.80640E+00     0.000
AGRL    1 000010001    1    0  361.80640E+00     0.000
AGRL    1 000010001    1    0  362.80640E+00     0.000
AGRL    1 000010001    1    0  363.80640E+00     0.000
AGRL    1 000010001    1    0  364.80640E+00     0.000
AGRL    1 000010001    1    0  365.80640E+00     0.000
AGRL    1 000010001    1    0    1.80640E+00     0.000
AGRL    1 000010001    1    0    2.80640E+00     0.000
AGRL    1 000010001    1    0    3.80640E+00     0.000
AGRL    1 000010001    1    0    4.80640E+00     0.000
AGRL    1 000010001    1    0    5.80640E+00     0.000
AGRL    1 000010001    1    0    6.80640E+00     0.000
AGRL    1 000010001    1    0    7.80640E+00     0.000
AGRL    1 000010001    1    0    8.80640E+00     0.000
AGRL    1 000010001    1    0    9.80640E+00     0.000
AGRL    1 000010001    1    0   10.80640E+00     0.000
AGRL    1 000010001    1    0   11.80640E+00     0.000
AGRL    1 000010001    1    0   12.80640E+00     0.000
AGRL    1 000010001    1    0   13.80640E+00     0.000
AGRL    1 000010001    1    0   14.80640E+00     0.000
AGRL    1 000010001    1    0   15.80640E+00     0.000
AGRL    1 000010001    1    0   16.80640E+00    17.800
AGRL    1 000010001    1    0   17.80640E+00     3.200
AGRL    1 000010001    1    0   18.80640E+00     0.000
AGRL    1 000010001    1    0   19.80640E+00     0.000
AGRL    1 000010001    1    0   20.80640E+00     0.000
AGRL    1 000010001    1    0   21.80640E+00     0.000
AGRL    1 000010001    1    0   22.80640E+00     0.000
AGRL    1 000010001    1    0   23.80640E+00     0.000
AGRL    1 000010001    1    0   24.80640E+00     0.000
AGRL    1 000010001    1    0   25.80640E+00     0.000
AGRL    1 000010001    1    0   26.80640E+00     0.000
AGRL    1 000010001    1    0   27.80640E+00     0.000
AGRL    1 000010001    1    0   28.80640E+00     0.000
AGRL    1 000010001    1    0   29.80640E+00     0.000
AGRL    1 000010001    1    0   30.80640E+00     0.000
AGRL    1 000010001    1    0   31.80640E+00     0.000
AGRL    1 000010001    1    0   32.80640E+00     0.000
AGRL    1 000010001    1    0   33.80640E+00     0.000
AGRL    1 000010001    1    0   34.80640E+00     0.000
AGRL    1 000010001    1    0   35.80640E+00    61.000
AGRL    1 000010001    1    0   36.80640E+00     0.000
AGRL    1 000010001    1    0   37.80640E+00     5.100
AGRL    1 000010001    1    0   38.80640E+00     0.000
AGRL    1 000010001    1    0   39.80640E+00     0.000
AGRL    1 000010001    1    0   40.80640E+00     5.100
AGRL    1 000010001    1    0   41.80640E+00     0.000
AGRL    1 000010001    1    0   42.80640E+00     0.000
AGRL    1 000010001    1    0   43.80640E+00     0.000
AGRL    1 000010001    1    0   44.80640E+00     0.000
AGRL    1 000010001    1    0   45.80640E+00     0.000
AGRL    1 000010001    1    0   46.80640E+00     0.000
AGRL    1 000010001    1    0   47.80640E+00     0.000
AGRL    1 000010001    1    0   48.80640E+00     0.000
AGRL    1 000010001    1    0   49.80640E+00     0.000
AGRL    1 000010001    1    0   50.80640E+00     0.000
AGRL    1 000010001    1    0   51.80640E+00     0.000
AGRL    1 000010001    1    0   52.80640E+00     0.000
AGRL    1 000010001    1    0   53.80640E+00     0.000
AGRL    1 000010001    1    0   54.80640E+00     0.000
AGRL    1 000010001    1    0   55.80640E+00     0.000
AGRL    1 000010001    1    0   56.80640E+00     5.100
AGRL    1 000010001    1    0   57.80640E+00     0.000
AGRL    1 000010001    1    0   58.80640E+00     0.000
AGRL    1 000010001    1    0   59.80640E+00     0.000
AGRL    1 000010001    1    0   60.80640E+00     0.000
AGRL    1 000010001    1    0   61.80640E+00     0.000
AGRL    1 000010001    1    0   62.80640E+00     0.000
AGRL    1 000010001    1    0   63.80640E+00     5.100
AGRL    1 000010001    1    0   64.80640E+00     0.000
AGRL    1 000010001    1    0   65.80640E+00     0.000
AGRL    1 000010001    1    0   66.80640E+00     0.000
AGRL    1 000010001    1    0   67.80640E+00     0.000
AGRL    1 000010001    1    0   68.80640E+00     0.000
AGRL    1 000010001    1    0   69.80640E+00     0.000
AGRL    1 000010001    1    0   70.80640E+00     0.000
AGRL    1 000010001    1    0   71.80640E+00     0.000
AGRL    1 000010001    1    0   72.80640E+00     0.000
AGRL    1 000010001    1    0   73.80640E+00     0.000
AGRL    1 000010001    1    0   74.80640E+00     0.000
AGRL    1 000010001    1    0   75.80640E+00     0.000
AGRL    1 000010001    1    0   76.80640E+00     0.000
AGRL    1 000010001    1    0   77.80640E+00     0.000
AGRL    1 000010001    1    0   78.80640E+00     0.000
AGRL    1 000010001    1    0   79.80640E+00     0.000
AGRL    1 000010001    1    0   80.80640E+00     0.000
AGRL    1 000010001    1    0   81.80640E+00     0.000
AGRL    1 000010001    1    0   82.80640E+00     0.000
AGRL    1 000010001    1    0   83.80640E+00     0.000
AGRL    1 000010001    1    0   84.80640E+00     0.000
AGRL    1 000010001    1    0   85.80640E+00     0.000
AGRL    1 000010001    1    0   86.80640E+00     0.000
AGRL    1 000010001    1    0   87.80640E+00     0.000
AGRL    1 000010001    1    0   88.80640E+00     0.000
AGRL    1 000010001    1    0   89.80640E+00     0.000
AGRL    1 000010001    1    0   90.80640E+00     0.000
AGRL    1 000010001    1    0   91.80640E+00     0.000
AGRL    1 000010001    1    0   92.80640E+00     0.000
AGRL    1 000010001    1    0   93.80640E+00     0.000
AGRL    1 000010001    1    0   94.80640E+00     0.000
AGRL    1 000010001    1    0   95.80640E+00     0.000
AGRL    1 000010001    1    0   96.80640E+00     0.000
AGRL    1 000010001    1    0   97.80640E+00     0.000
AGRL    1 000010001    1    0   98.80640E+00     0.000
AGRL    1 000010001    1    0   99.80640E+00     0.000
AGRL    1 000010001    1    0  100.80640E+00    58.400
AGRL    1 000010001    1    0  101.80640E+00     0.000
AGRL    1 000010001    1    0  102.80640E+00     0.000
AGRL    1 000010001    1    0  103.80640E+00     0.000
AGRL    1 000010001    1    0  104.80640E+00     0.000
AGRL    1 000010001    1    0  105.80640E+00     0.000
AGRL    1 000010001    1    0  106.80640E+00     0.000
AGRL    1 000010001    1    0  107.80640E+00     0.000
AGRL    1 000010001    1    0  108.80640E+00     0.000
AGRL    1 000010001    1    0  109.80640E+00     0.000
AGRL    1 000010001    1    0  110.80640E+00     6.400
AGRL    1 000010001    1    0  111.80640E+00     0.000
AGRL    1 000010001    1    0  112.80640E+00     0.000
AGRL    1 000010001    1    0  113.80640E+00     0.000
AGRL    1 000010001    1    0  114.80640E+00     3.800
AGRL    1 000010001    1    0  115.80640E+00     0.000
AGRL    1 000010001    1    0  116.80640E+00     0.000
AGRL    1 000010001    1    0  117.80640E+00     3.800
AGRL    1 000010001    1    0  118.80640E+00     0.000
AGRL    1 000010001    1    0  119.80640E+00     3.800
AGRL    1 000010001    1    0  120.80640E+00     0.000
AGRL    1 000010001    1    0  121.80640E+00    40.600
AGRL    1 000010001    1    0  122.80640E+00     0.000
AGRL    1 000010001    1    0  123.80640E+00     0.000
AGRL    1 000010001    1    0  124.80640E+00     0.000
AGRL    1 000010001    1    0  125.80640E+00     0.000
AGRL    1 000010001    1    0  126.80640E+00     0.000
AGRL    1 000010001    1    0  127.80640E+00     0.000
AGRL    1 000010001    1    0  128.80640E+00     0.000
AGRL    1 000010001    1    0  129.80640E+00    12.700
AGRL    1 000010001    1    0  130.80640E+00    40.600
AGRL    1 000010001    1    0  131.80640E+00     0.000
AGRL    1 000010001    1    0  132.80640E+00     0.000
AGRL    1 000010001    1    0  133.80640E+00     0.000
AGRL    1 000010001    1    0  134.80640E+00     0.000
AGRL    1 000010001    1    0  135.80640E+00     3.200
AGRL    1 000010001    1    0  136.80640E+00     0.000
AGRL    1 000010001    1    0  137.80640E+00     0.000
AGRL    1 000010001    1    0  138.80640E+00    22.900
AGRL    1 000010001    1    0  139.80640E+00     0.000
AGRL    1 000010001    1    0  140.80640E+00     0.000
AGRL    1 000010001    1    0  141.80640E+00     0.000
AGRL    1 000010001    1    0  142.80640E+00     0.000
AGRL    1 000010001    1    0  143.80640E+00     0.000
AGRL    1 000010001    1    0  144.80640E+00     0.000
AGRL    1 000010001    1    0  145.80640E+00     6.400
AGRL    1 000010001    1    0  146.80640E+00     0.000
AGRL    1 000010001    1    0  147.80640E+00     0.000
AGRL    1 000010001    1    0  148.80640E+00     0.000
AGRL    1 000010001    1    0  149.80640E+00     0.000
AGRL    1 000010001    1    0  150.80640E+00     3.200
AGRL    1 000010001    1    0  151.80640E+00    33.000
AGRL    1 000010001    1    0  152.80640E+00     8.900
AGRL    1 000010001    1    0  153.80640E+00     6.400
AGRL    1 000010001    1    0  154.80640E+00    16.500
AGRL    1 000010001    1    0  155.80640E+00     3.200
AGRL    1 000010001    1    0  156.80640E+00    11.400
AGRL    1 000010001    1    0  157.80640E+00     8.200
AGRL    1 000010001    1    0  158.80640E+00     4.600
AGRL    1 000010001    1    0  159.80640E+00     8.200
AGRL    1 000010001    1    0  160.80640E+00     9.200
AGRL    1 000010001    1    0  161.80640E+00     0.000
AGRL    1 000010001    1    0  162.80640E+00     8.000
AGRL    1 000010001    1    0  163.80640E+00     0.000
AGRL    1 000010001    1    0  164.80640E+00     0.000
AGRL    1 000010001    1    0  165.80640E+00     1.900
AGRL    1 000010001    1    0  166.80640E+00     0.000
AGRL    1 000010001    1    0  167.80640E+00     1.800
AGRL    1 000010001    1    0  168.80640E+00     7.600
AGRL    1 000010001    1    0  169.80640E+00     4.900
AGRL    1 000010001    1    0  170.80640E+00    21.100
AGRL    1 000010001    1    0  171.80640E+00     0.900
AGRL    1 000010001    1    0  172.80640E+00     0.900
AGRL    1 000010001    1    0  173.80640E+00     0.100
AGRL    1 000010001    1    0  174.80640E+00     0.000
AGRL    1 000010001    1    0  175.80640E+00     1.100
AGRL    1 000010001    1    0  176.80640E+00     1.200
AGRL    1 000010001    1    0  177.80640E+00     5.800
AGRL    1 000010001    1    0  178.80640E+00     0.500
AGRL    1 000010001    1    0  179.80640E+00     0.000
AGRL    1 000010001    1    0  180.80640E+00     0.000
AGRL    1 000010001    1    0  181.80640E+00     0.000
AGRL    1 000010001    1    0  182.80640E+00     0.000
AGRL    1 000010001    1    0  183.80640E+00     4.200
AGRL    1 000010001    1    0  184.80640E+00     2.100
AGRL    1 000010001    1    0  185.80640E+00     0.000
AGRL    1 000010001    1    0  186.80640E+00     0.000
AGRL    1 000010001    1    0  187.80640E+00     0.000
AGRL    1 000010001    1    0  188.80640E+00     0.800
AGRL    1 000010001    1    0  189.80640E+00     0.100
AGRL    1 000010001    1    0  190.80640E+00     2.700
AGRL    1 000010001    1    0  191.80640E+00     0.000
AGRL    1 000010001    1    0  192.80640E+00     0.000
AGRL    1 000010001    1    0  193.80640E+00     0.000
AGRL    1 000010001    1    0  194.80640E+00     0.000
AGRL    1 000010001    1    0  195.80640E+00     0.000
AGRL    1 000010001    1    0  196.80640E+00     0.200
AGRL    1 000010001    1    0  197.80640E+00     0.000
AGRL    1 000010001    1    0  198.80640E+00     0.000
AGRL    1 000010001    1    0  199.80640E+00     0.000
AGRL    1 000010001    1    0  200.80640E+00     0.000
AGRL    1 000010001    1    0  201.80640E+00     0.100
AGRL    1 000010001    1    0  202.80640E+00     5.200
AGRL    1 000010001    1    0  203.80640E+00     0.400
AGRL    1 000010001    1    0  204.80640E+00     0.000
AGRL    1 000010001    1    0  205.80640E+00     0.000
AGRL    1 000010001    1    0  206.80640E+00     0.000
AGRL    1 000010001    1    0  207.80640E+00     0.000
AGRL    1 000010001    1    0  208.80640E+00     0.000
AGRL    1 000010001    1    0  209.80640E+00     0.000
AGRL    1 000010001    1    0  210.80640E+00     0.000
AGRL    1 000010001    1    0  211.80640E+00     0.000
AGRL    1 000010001    1    0  212.80640E+00     0.000
AGRL    1 000010001    1    0  213.80640E+00     0.000
AGRL    1 000010001    1    0  214.80640E+00     0.000
AGRL    1 000010001    1    0  215.80640E+00     0.400
AGRL    1 000010001    1    0  216.80640E+00     0.500
AGRL    1 000010001    1    0  217.80640E+00     0.000
AGRL    1 000010001    1    0  218.80640E+00     0.000
AGRL    1 000010001    1    0  219.80640E+00     0.000
AGRL    1 000010001    1    0  220.80640E+00     0.300
AGRL    1 000010001    1    0  221.80640E+00     0.000
AGRL    1 000010001    1    0  222.80640E+00     0.100
AGRL    1 000010001    1    0  223.80640E+00    69.600
AGRL    1 000010001    1    0  224.80640E+00     0.300
AGRL    1 000010001    1    0  225.80640E+00     0.000
AGRL    1 000010001    1    0  226.80640E+00     0.000
AGRL    1 000010001    1    0  227.80640E+00     0.000
AGRL    1 000010001    1    0  228.80640E+00     0.000
AGRL    1 000010001    1    0  229.80640E+00     1.600
AGRL    1 000010001    1    0  230.80640E+00     0.400
AGRL    1 000010001    1    0  231.80640E+00     0.300
AGRL    1 000010001    1    0  232.80640E+00     0.000
AGRL    1 000010001    1    0  233.80640E+00     0.000
AGRL    1 000010001    1    0  234.80640E+00     0.000
AGRL    1 000010001    1    0  235.80640E+00     0.000
AGRL    1 000010001    1    0  236.80640E+00     1.100
AGRL    1 000010001    1    0  237.80640E+00     0.100
AGRL    1 000010001    1    0  238.80640E+00     0.000
AGRL    1 000010001    1    0  239.80640E+00     2.900
AGRL    1 000010001    1    0  240.80640E+00    21.800
AGRL    1 000010001    1    0  241.80640E+00     0.000
AGRL    1 000010001    1    0  242.80640E+00     0.000
AGRL    1 000010001    1    0  243.80640E+00     1.200
AGRL    1 000010001    1    0  244.80640E+00    91.500
AGRL    1 000010001    1    0  245.80640E+00    15.800
AGRL    1 000010001    1    0  246.80640E+00     9.700
AGRL    1 000010001    1    0  247.80640E+00     0.000
AGRL    1 000010001    1    0  248.80640E+00     6.300
AGRL    1 000010001    1    0  249.80640E+00    11.800
AGRL    1 000010001    1    0  250.80640E+00    13.300
AGRL    1 000010001    1    0  251.80640E+00     7.300
AGRL    1 000010001    1    0  252.80640E+00     6.500
AGRL    1 000010001    1    0  253.80640E+00     0.100
AGRL    1 000010001    1    0  254.80640E+00     6.700
AGRL    1 000010001    1    0  255.80640E+00     0.000
AGRL    1 000010001    1    0  256.80640E+00     9.900
AGRL    1 000010001    1    0  257.80640E+00     7.700
AGRL    1 000010001    1    0  258.80640E+00     1.200
AGRL    1 000010001    1    0  259.80640E+00     0.300
AGRL    1 000010001    1    0  260.80640E+00     1.000
AGRL    1 000010001    1    0  261.80640E+00     4.200
AGRL    1 000010001    1    0  262.80640E+00     3.100
AGRL    1 000010001    1    0  263.80640E+00     6.900
AGRL    1 000010001    1    0  264.80640E+00    14.300
AGRL    1 000010001    1    0  265.80640E+00     3.700
AGRL    1 000010001    1    0  266.80640E+00     0.000
AGRL    1 000010001    1    0  267.80640E+00     0.000
AGRL    1 000010001    1    0  268.80640E+00     1.000
AGRL    1 000010001    1    0  269.80640E+00     2.200
AGRL    1 000010001    1    0  270.80640E+00     0.000
AGRL    1 000010001    1    0  271.80640E+00     2.000
AGRL    1 000010001    1    0  272.80640E+00     0.100
AGRL    1 000010001    1    0  273.80640E+00     0.000
AGRL    1 000010001    1    0  274.80640E+00     0.000
AGRL    1 000010001    1    0  275.80640E+00     0.000
AGRL    1 000010001    1    0  276.80640E+00     0.000
AGRL    1 000010001    1    0  277.80640E+00     5.000
AGRL    1 000010001    1    0  278.80640E+00     1.600
AGRL    1 000010001    1    0  279.80640E+00    15.600
AGRL    1 000010001    1    0  280.80640E+00     1.100
AGRL    1 000010001    1    0  281.80640E+00     1.300
AGRL    1 000010001    1    0  282.80640E+00     2.900
AGRL    1 000010001    1    0  283.80640E+00     0.000
AGRL    1 000010001    1    0  284.80640E+00     0.400
AGRL    1 000010001    1    0  285.80640E+00    53.800
AGRL    1 000010001    1    0  286.80640E+00     0.100
AGRL    1 000010001    1    0  287.80640E+00     0.000
AGRL    1 000010001    1    0  288.80640E+00     0.000
AGRL    1 000010001    1    0  289.80640E+00     0.000
AGRL    1 000010001    1    0  290.80640E+00     0.000
AGRL    1 000010001    1    0  291.80640E+00     0.000
AGRL    1 000010001    1    0  292.80640E+00     0.000
AGRL    1 000010001    1    0  293.80640E+00     0.000
AGRL    1 000010001    1    0  294.80640E+00     1.700
AGRL    1 000010001    1    0  295.80640E+00     4.000
AGRL    1 000010001    1    0  296.80640E+00     0.300
AGRL    1 000010001    1    0  297.80640E+00     0.000
AGRL    1 000010001    1    0  298.80640E+00     0.000
AGRL    1 000010001    1    0  299.80640E+00     0.000
AGRL    1 000010001    1    0  300.80640E+00     0.000
AGRL    1 000010001    1    0  301.80640E+00     0.000
AGRL    1 000010001    1    0  302.80640E+00     0.000
AGRL    1 000010001    1    0  303.80640E+00     0.000
AGRL    1 000010001    1    0  304.80640E+00     0.000
AGRL    1 000010001    1    0  305.80640E+00     0.300
AGRL    1 000010001    1    0  306.80640E+00     0.400
AGRL    1 000010001    1    0  307.80640E+00     0.400
AGRL    1 000010001    1    0  308.80640E+00    52.400
AGRL    1 000010001    1    0  309.80640E+00     0.000
AGRL    1 000010001    1    0  310.80640E+00     2.400
AGRL    1 000010001    1    0  311.80640E+00     1.400
AGRL    1 000010001    1    0  312.80640E+00     0.600
AGRL    1 000010001    1    0  313.80640E+00     0.000
AGRL    1 000010001    1    0  314.80640E+00     3.000
AGRL    1 000010001    1    0  315.80640E+00     4.600
AGRL    1 000010001    1    0  316.80640E+00     3.700
AGRL    1 000010001    1    0  317.80640E+00     0.800
AGRL    1 000010001    1    0  318.80640E+00     0.000
AGRL    1 000010001    1    0  319.80640E+00     0.000
AGRL    1 000010001    1    0  320.80640E+00     0.000
AGRL    1 000010001    1    0  321.80640E+00     0.000
AGRL    1 000010001    1    0  322.80640E+00     0.000
AGRL    1 000010001    1    0  323.80640E+00     2.700
AGRL    1 000010001    1    0  324.80640E+00     0.000
AGRL    1 000010001    1    0  325.80640E+00     0.000
AGRL    1 000010001    1    0  326.80640E+00     1.300
AGRL    1 000010001    1    0  327.80640E+00     4.500
AGRL    1 000010001    1    0  328.80640E+00    14.200
AGRL    1 000010001    1    0  329.80640E+00    39.600
AGRL    1 000010001    1    0  330.80640E+00     0.000
AGRL    1 000010001    1    0  331.80640E+00     0.000
AGRL    1 000010001    1    0  332.80640E+00     0.000
AGRL    1 000010001    1    0  333.80640E+00     0.000
AGRL    1 000010001    1    0  334.80640E+00     0.000
AGRL    1 000010001    1    0  335.80640E+00     0.000
AGRL    1 000010001    1    0  336.80640E+00     0.000
AGRL    1 000010001    1    0  337.80640E+00     0.000
AGRL    1 000010001    1    0  338.80640E+00     0.000
AGRL    1 000010001    1    0  339.80640E+00     0.000
AGRL    1 000010001    1    0  340.80640E+00     1.600
AGRL    1 000010001    1    0  341.80640E+00    10.900
AGRL    1 000010001    1    0  342.80640E+00     3.500
AGRL    1 000010001    1    0  343.80640E+00     0.400
AGRL    1 000010001    1    0  344.80640E+00     4.300
AGRL    1 000010001    1    0  345.80640E+00     0.400
AGRL    1 000010001    1    0  346.80640E+00     0.000
AGRL    1 000010001    1    0  347.80640E+00     0.000
AGRL    1 000010001    1    0  348.80640E+00     5.100
AGRL    1 000010001    1    0  349.80640E+00     2.400
AGRL    1 000010001    1    0  350.80640E+00     0.300
AGRL    1 000010001    1    0  351.80640E+00     0.500
AGRL    1 000010001    1    0  352.80640E+00    27.000
AGRL    1 000010001    1    0  353.80640E+00     0.000
AGRL    1 000010001    1    0  354.80640E+00     0.000
AGRL    1 000010001    1    0  355.80640E+00     2.700
AGRL    1 000010001    1    0  356.80640E+00    22.500
AGRL    1 000010001    1    0  357.80640E+00     7.100
AGRL    1 000010001    1    0  358.80640E+00     0.000
AGRL    1 000010001    1    0  359.80640E+00     0.000
AGRL    1 000010001    1    0  360.80640E+00     0.000
AGRL    1 000010001    1    0  361.80640E+00     0.000
AGRL    1 000010001    1    0  362.80640E+00     0.000
AGRL    1 000010001    1    0  363.80640E+00     0.000
AGRL    1 000010001    1    0  364.80640E+00     0.000
AGRL    1 000010001    1    0  365.80640E+00     0.000
AGRL    1 000010001    1    0    1.80640E+00     0.000
AGRL    1 000010001    1    0    2.80640E+00     0.600
AGRL    1 000010001    1    0    3.80640E+00     0.400
AGRL    1 000010001    1    0    4.80640E+00     0.000
AGRL    1 000010001    1    0    5.80640E+00     0.000
AGRL    1 000010001    1    0    6.80640E+00     0.500
AGRL    1 000010001    1    0    7.80640E+00     0.400
AGRL    1 000010001    1    0    8.80640E+00     4.700
AGRL    1 000010001    1    0    9.80640E+00    15.100
AGRL    1 000010001    1    0   10.80640E+00     0.000
AGRL    1 000010001    1    0   11.80640E+00     0.000
AGRL    1 000010001    1    0   12.80640E+00     0.000
AGRL    1 000010001    1    0   13.80640E+00     0.100
AGRL    1 000010001    1    0   14.80640E+00     0.500
AGRL    1 000010001    1    0   15.80640E+00     0.100
AGRL    1 000010001    1    0   16.80640E+00     3.400
AGRL    1 000010001    1    0   17.80640E+00     7.300
AGRL    1 000010001    1    0   18.80640E+00     2.600
AGRL    1 000010001    1    0   19.80640E+00     0.000
AGRL    1 000010001    1    0   20.80640E+00     0.000
AGRL    1 000010001    1    0   21.80640E+00     0.000
AGRL    1 000010001    1    0   22.80640E+00     0.000
AGRL    1 000010001    1    0   23.80640E+00     0.000
AGRL    1 000010001    1    0   24.80640E+00     0.000
AGRL    1 000010001    1    0   25.80640E+00     0.000
AGRL    1 000010001    1    0   26.80640E+00     0.000
AGRL    1 000010001    1    0   27.80640E+00     0.000
AGRL    1 000010001    1    0   28.80640E+00     0.000
AGRL    1 000010001    1    0   29.80640E+00     0.000
AGRL    1 000010001    1    0   30.80640E+00     0.000
AGRL    1 000010001    1    0   31.80640E+00     0.400
AGRL    1 000010001    1    0   32.80640E+00     2.000
AGRL    1 000010001    1    0   33.80640E+00     0.000
AGRL    1 000010001    1    0   34.80640E+00     0.000
AGRL    1 000010001    1    0   35.80640E+00     0.000
AGRL    1 000010001    1    0   36.80640E+00     2.000
AGRL    1 000010001    1    0   37.80640E+00     3.900
AGRL    1 000010001    1    0   38.80640E+00     0.100
AGRL    1 000010001    1    0   39.80640E+00     0.000
AGRL    1 000010001    1    0   40.80640E+00     0.000
AGRL    1 000010001    1    0   41.80640E+00     0.000
AGRL    1 000010001    1    0   42.80640E+00     0.200
AGRL    1 000010001    1    0   43.80640E+00     0.000
AGRL    1 000010001    1    0   44.80640E+00     0.000
AGRL    1 000010001    1    0   45.80640E+00     0.100
AGRL    1 000010001    1    0   46.80640E+00     9.300
AGRL    1 000010001    1    0   47.80640E+00     0.000
AGRL    1 000010001    1    0   48.80640E+00     0.100
AGRL    1 000010001    1    0   49.80640E+00     0.000
AGRL    1 000010001    1    0   50.80640E+00     2.900
AGRL    1 000010001    1    0   51.80640E+00    17.200
AGRL    1 000010001    1    0   52.80640E+00     0.900
AGRL    1 000010001    1    0   53.80640E+00     0.100
AGRL    1 000010001    1    0   54.80640E+00     0.300
AGRL    1 000010001    1    0   55.80640E+00     4.500
AGRL    1 000010001    1    0   56.80640E+00     6.700
AGRL    1 000010001    1    0   57.80640E+00     8.400
AGRL    1 000010001    1    0   58.80640E+00     5.300
AGRL    1 000010001    1    0   59.80640E+00     1.000
AGRL    1 000010001    1    0   60.80640E+00     0.000
AGRL    1 000010001    1    0   61.80640E+00     0.000
AGRL    1 000010001    1    0   62.80640E+00     0.000
AGRL    1 000010001    1    0   63.80640E+00     0.000
AGRL    1 000010001    1    0   64.80640E+00     0.000
AGRL    1 000010001    1    0   65.80640E+00     0.000
AGRL    1 000010001    1    0   66.80640E+00     0.000
AGRL    1 000010001    1    0   67.80640E+00     0.000
AGRL    1 000010001    1    0   68.80640E+00     0.800
AGRL    1 000010001    1    0   69.80640E+00     0.600
AGRL    1 000010001    1    0   70.80640E+00     2.400
AGRL    1 000010001    1    0   71.80640E+00     0.200
AGRL    1 000010001    1    0   72.80640E+00     0.000
AGRL    1 000010001    1    0   73.80640E+00     0.200
AGRL    1 000010001    1    0   74.80640E+00     1.400
AGRL    1 000010001    1    0   75.80640E+00     4.800
AGRL    1 000010001    1    0   76.80640E+00    49.700
AGRL    1 000010001    1    0   77.80640E+00     0.000
AGRL    1 000010001    1    0   78.80640E+00     0.000
AGRL    1 000010001    1    0   79.80640E+00     0.000
AGRL    1 000010001    1    0   80.80640E+00     0.400
AGRL    1 000010001    1    0   81.80640E+00     0.900
AGRL    1 000010001    1    0   82.80640E+00    13.200
AGRL    1 000010001    1    0   83.80640E+00     0.000
AGRL    1 000010001    1    0   84.80640E+00     0.000
AGRL    1 000010001    1    0   85.80640E+00     0.000
AGRL    1 000010001    1    0   86.80640E+00     0.000
AGRL    1 000010001    1    0   87.80640E+00     2.700
AGRL    1 000010001    1    0   88.80640E+00     6.400
AGRL    1 000010001    1    0   89.80640E+00     0.000
AGRL    1 000010001    1    0   90.80640E+00     0.000
AGRL    1 000010001    1    0   91.80640E+00     0.000
AGRL    1 000010001    1    0   92.80640E+00     0.100
AGRL    1 000010001    1    0   93.80640E+00     0.000
AGRL    1 000010001    1    0   94.80640E+00     0.000
AGRL    1 000010001    1    0   95.80640E+00    14.800
AGRL    1 000010001    1    0   96.80640E+00     0.400
AGRL    1 000010001    1    0   97.80640E+00     0.000
AGRL    1 000010001    1    0   98.80640E+00     0.000
AGRL    1 000010001    1    0   99.80640E+00     0.000
AGRL    1 000010001    1    0  100.80640E+00     0.000
AGRL    1 000010001    1    0  101.80640E+00     0.000
AGRL    1 000010001    1    0  102.80640E+00     0.000
AGRL    1 000010001    1    0  103.80640E+00     1.500
AGRL    1 000010001    1    0  104.80640E+00     0.000
AGRL    1 000010001    1    0  105.80640E+00     0.000
AGRL    1 000010001    1    0  106.80640E+00     0.000
AGRL    1 000010001    1    0  107.80640E+00     0.000
AGRL    1 000010001    1    0  108.80640E+00     0.000
AGRL    1 000010001    1    0  109.80640E+00     0.000
AGRL    1 000010001    1    0  110.80640E+00     0.000
AGRL    1 000010001    1    0  111.80640E+00     0.600
AGRL    1 000010001    1    0  112.80640E+00     0.000
AGRL    1 000010001    1    0  113.80640E+00     0.100
AGRL    1 000010001    1    0  114.80640E+00     0.000
AGRL    1 000010001    1    0  115.80640E+00     0.000
AGRL    1 000010001    1    0  116.80640E+00     0.000
AGRL    1 000010001    1    0  117.80640E+00     0.000
AGRL    1 000010001    1    0  118.80640E+00     0.000
AGRL    1 000010001    1    0  119.80640E+00     0.000
AGRL    1 000010001    1    0  120.80640E+00     0.000
AGRL    1 000010001    1    0  121.80640E+00    11.000
AGRL    1 000010001    1    0  122.80640E+00     0.100
AGRL    1 000010001    1    0  123.80640E+00    29.600
AGRL    1 000010001    1    0  124.80640E+00     6.000
AGRL    1 000010001    1    0  125.80640E+00     0.000
AGRL    1 000010001    1    0  126.80640E+00     0.800
AGRL    1 000010001    1    0  127.80640E+00     0.100
AGRL    1 000010001    1    0  128.80640E+00    11.800
AGRL    1 000010001    1    0  129.80640E+00     6.500
AGRL    1 000010001    1    0  130.80640E+00     0.600
AGRL    1 000010001    1    0  131.80640E+00     1.800
AGRL    1 000010001    1    0  132.80640E+00     7.600
AGRL    1 000010001    1    0  133.80640E+00     0.000
AGRL    1 000010001    1    0  134.80640E+00    32.700
AGRL    1 000010001    1    0  135.80640E+00    18.600
AGRL    1 000010001    1    0  136.80640E+00    21.500
AGRL    1 000010001    1    0  137.80640E+00     0.000
AGRL    1 000010001    1    0  138.80640E+00     0.000
AGRL    1 000010001    1    0  139.80640E+00     6.400
AGRL    1 000010001    1    0  140.80640E+00     4.700
AGRL    1 000010001    1    0  141.80640E+00     0.100
AGRL    1 000010001    1    0  142.80640E+00     1.200
AGRL    1 000010001    1    0  143.80640E+00     0.100
AGRL    1 000010001    1    0  144.80640E+00     2.100
AGRL    1 000010001    1    0  145.80640E+00     0.700
AGRL    1 000010001    1    0  146.80640E+00     0.000
AGRL    1 000010001    1    0  147.80640E+00     0.000
AGRL    1 000010001    1    0  148.80640E+00    21.000
AGRL    1 000010001    1    0  149.80640E+00     2.300
AGRL    1 000010001    1    0  150.80640E+00    12.000
AGRL    1 000010001    1    0  151.80640E+00     0.200
AGRL    1 000010001    1    0  152.80640E+00     1.200
AGRL    1 000010001    1    0  153.80640E+00     4.900
AGRL    1 000010001    1    0  154.80640E+00    23.100
AGRL    1 000010001    1    0  155.80640E+00     8.800
AGRL    1 000010001    1    0  156.80640E+00     0.000
AGRL    1 000010001    1    0  157.80640E+00     0.000
AGRL    1 000010001    1    0  158.80640E+00     4.000
AGRL    1 000010001    1    0  159.80640E+00    14.500
AGRL    1 000010001    1    0  160.80640E+00    11.700
AGRL    1 000010001    1    0  161.80640E+00    16.000
AGRL    1 000010001    1    0  162.80640E+00    23.600
AGRL    1 000010001    1    0  163.80640E+00    15.400
AGRL    1 000010001    1    0  164.80640E+00    10.400
AGRL    1 000010001    1    0  165.80640E+00     1.300
AGRL    1 000010001    1    0  166.80640E+00     7.300
AGRL    1 000010001    1    0  167.80640E+00     3.900
AGRL    1 000010001    1    0  168.80640E+00     0.100
AGRL    1 000010001    1    0  169.80640E+00     0.000
AGRL    1 000010001    1    0  170.80640E+00     0.000
AGRL    1 000010001    1    0  171.80640E+00     0.000
AGRL    1 000010001    1    0  172.80640E+00     0.000
AGRL    1 000010001    1    0  173.80640E+00     0.000
AGRL    1 000010001    1    0  174.80640E+00     0.100
AGRL    1 000010001    1    0  175.80640E+00     0.000
AGRL    1 000010001    1    0  176.80640E+00     0.000
AGRL    1 000010001    1    0  177.80640E+00     0.000
AGRL    1 000010001    1    0  178.80640E+00     0.000
AGRL    1 000010001    1    0  179.80640E+00     0.000
AGRL    1 000010001    1    0  180.80640E+00     0.000
AGRL    1 000010001    1    0  181.80640E+00     6.600
AGRL    1 000010001    1    0  182.80640E+00     7.100
AGRL    1 000010001    1    0  183.80640E+00     0.000
AGRL    1 000010001    1    0  184.80640E+00     0.000
AGRL    1 000010001    1    0  185.80640E+00     0.000
AGRL    1 000010001    1    0  186.80640E+00     0.000
AGRL    1 000010001    1    0  187.80640E+00     0.000
AGRL    1 000010001    1    0  188.80640E+00     0.000
AGRL    1 000010001    1    0  189.80640E+00    11.900
AGRL    1 000010001    1    0  190.80640E+00     3.400
AGRL    1 000010001    1    0  191.80640E+00     0.000
AGRL    1 000010001    1    0  192.80640E+00     0.000
AGRL    1 000010001    1    0  193.80640E+00     0.000
AGRL    1 000010001    1    0  194.80640E+00     0.300
AGRL    1 000010001    1    0  195.80640E+00     0.000
AGRL    1 000010001    1    0  196.80640E+00     0.000
AGRL    1 000010001    1    0  197.80640E+00    23.900
AGRL    1 000010001    1    0  198.80640E+00     8.900
AGRL    1 000010001    1    0  199.80640E+00     0.400
AGRL    1 000010001    1    0  200.80640E+00     0.000
AGRL    1 000010001    1    0  201.80640E+00     0.200
AGRL    1 000010001    1    0  202.80640E+00     7.300
AGRL    1 000010001    1    0  203.80640E+00     7.200
AGRL    1 000010001    1    0  204.80640E+00     4.500
AGRL    1 000010001    1    0  205.80640E+00     1.700
AGRL    1 000010001    1    0  206.80640E+00     0.000
AGRL    1 000010001    1    0  207.80640E+00     0.100
AGRL    1 000010001    1    0  208.80640E+00     0.000
AGRL    1 000010001    1    0  209.80640E+00     0.000
AGRL    1 000010001    1    0  210.80640E+00     0.000
AGRL    1 000010001    1    0  211.80640E+00     0.000
AGRL    1 000010001    1    0  212.80640E+00     0.000
AGRL    1 000010001    1    0  213.80640E+00     0.000
AGRL    1 000010001    1    0  214.80640E+00     0.000
AGRL    1 000010001    1    0  215.80640E+00     0.000
AGRL    1 000010001    1    0  216.80640E+00     0.000
AGRL    1 000010001    1    0  217.80640E+00     0.000
AGRL    1 000010001    1    0  218.80640E+00     0.000
AGRL    1 000010001    1    0  219.80640E+00     0.000
AGRL    1 000010001    1    0  220.80640E+00     0.000
AGRL    1 000010001    1    0  221.80640E+00     0.000
AGRL    1 000010001    1    0  222.80640E+00     3.600
AGRL    1 000010001    1    0  223.80640E+00     2.000
AGRL    1 000010001    1    0  224.80640E+00     0.200
AGRL    1 000010001    1    0  225.80640E+00     0.000
AGRL    1 000010001    1    0  226.80640E+00     0.000
AGRL    1 000010001    1    0  227.80640E+00     0.000
AGRL    1 000010001    1    0  228.80640E+00     0.000
AGRL    1 000010001    1    0  229.80640E+00     0.000
AGRL    1 000010001    1    0  230.80640E+00     0.000
AGRL    1 000010001    1    0  231.80640E+00     0.000
AGRL    1 000010001    1    0  232.80640E+00     0.000
AGRL    1 000010001    1    0  233.80640E+00     0.000
AGRL    1 000010001    1    0  234.80640E+00     0.000
AGRL    1 000010001    1    0  235.80640E+00     0.000
AGRL    1 000010001    1    0  236.80640E+00     1.400
AGRL    1 000010001    1    0  237.80640E+00     1.000
AGRL    1 000010001    1    0  238.80640E+00     2.900
AGRL    1 000010001    1    0  239.80640E+00     2.500
AGRL    1 000010001    1    0  240.80640E+00    10.500
AGRL    1 000010001    1    0  241.80640E+00     0.100
AGRL    1 000010001    1    0  242.80640E+00    11.100
AGRL    1 000010001    1    0  243.80640E+00    18.100
AGRL    1 000010001    1    0  244.80640E+00     0.200
AGRL    1 000010001    1    0  245.80640E+00     0.000
AGRL    1 000010001    1    0  246.80640E+00     0.000
AGRL    1 000010001    1    0  247.80640E+00     0.000
AGRL    1 000010001    1    0  248.80640E+00     0.000
AGRL    1 000010001    1    0  249.80640E+00     2.500
AGRL    1 000010001    1    0  250.80640E+00    47.800
AGRL    1 000010001    1    0  251.80640E+00     1.500
AGRL    1 000010001    1    0  252.80640E+00     0.000
AGRL    1 000010001    1    0  253.80640E+00     7.300
AGRL    1 000010001    1    0  254.80640E+00     5.500
AGRL    1 000010001    1    0  255.80640E+00     0.100
AGRL    1 000010001    1    0  256.80640E+00     1.200
AGRL    1 000010001    1    0  257.80640E+00     0.000
AGRL    1 000010001    1    0  258.80640E+00    13.400
AGRL    1 000010001    1    0  259.80640E+00     0.500
AGRL    1 000010001    1    0  260.80640E+00     0.500
AGRL    1 000010001    1    0  261.80640E+00    15.700
AGRL    1 000010001    1    0  262.80640E+00     0.100
AGRL    1 000010001    1    0  263.80640E+00     0.000
AGRL    1 000010001    1    0  264.80640E+00     0.000
AGRL    1 000010001    1    0  265.80640E+00     0.000
AGRL    1 000010001    1    0  266.80640E+00     0.000
AGRL    1 000010001    1    0  267.80640E+00     0.000
AGRL    1 000010001    1    0  268.80640E+00     0.000
AGRL    1 000010001    1    0  269.80640E+00     0.000
AGRL    1 000010001    1    0  270.80640E+00    10.500
AGRL    1 000010001    1    0  271.80640E+00     0.300
AGRL    1 000010001    1    0  272.80640E+00     0.000
AGRL    1 000010001    1    0  273.80640E+00     0.000
AGRL    1 000010001    1    0  274.80640E+00     0.000
AGRL    1 000010001    1    0  275.80640E+00     0.000
AGRL    1 000010001    1    0  276.80640E+00     0.000
AGRL    1 000010001    1    0  277.80640E+00     0.000
AGRL    1 000010001    1    0  278.80640E+00     0.000
AGRL    1 000010001    1    0  279.80640E+00     0.000
AGRL    1 000010001    1    0  280.80640E+00     0.000
AGRL    1 000010001    1    0  281.80640E+00     0.000
AGRL    1 000010001    1    0  282.80640E+00     0.000
AGRL    1 000010001    1    0  283.80640E+00     0.000
AGRL    1 000010001    1    0  284.80640E+00     0.000
AGRL    1 000010001    1    0  285.80640E+00     0.000
AGRL    1 000010001    1    0  286.80640E+00     0.000
AGRL    1 000010001    1    0  287.80640E+00     0.000
AGRL    1 000010001    1    0  288.80640E+00     0.000
AGRL    1 000010001    1    0  289.80640E+00     0.200
AGRL    1 000010001    1    0  290.80640E+00     0.000
AGRL    1 000010001    1    0  291.80640E+00     0.000
AGRL    1 000010001    1    0  292.80640E+00     1.400
AGRL    1 000010001    1    0  293.80640E+00     1.100
AGRL    1 000010001    1    0  294.80640E+00     0.000
AGRL    1 000010001    1    0  295.80640E+00     0.500
AGRL    1 000010001    1    0  296.80640E+00     5.800
AGRL    1 000010001    1    0  297.80640E+00     1.400
AGRL    1 000010001    1    0  298.80640E+00     1.000
AGRL    1 000010001    1    0  299.80640E+00     0.000
AGRL    1 000010001    1    0  300.80640E+00     0.000
AGRL    1 000010001    1    0  301.80640E+00     0.000
AGRL    1 000010001    1    0  302.80640E+00     0.000
AGRL    1 000010001    1    0  303.80640E+00     0.000
AGRL    1 000010001    1    0  304.80640E+00     0.100
AGRL    1 000010001    1    0  305.80640E+00     0.100
AGRL    1 000010001    1    0  306.80640E+00     0.000
AGRL    1 000010001    1    0  307.80640E+00     0.000
AGRL    1 000010001    1    0  308.80640E+00     0.000
AGRL    1 000010001    1    0  309.80640E+00     0.000
AGRL    1 000010001    1    0  310.80640E+00     0.000
AGRL    1 000010001    1    0  311.80640E+00     0.300
AGRL    1 000010001    1    0  312.80640E+00    42.900
AGRL    1 000010001    1    0  313.80640E+00     4.300
AGRL    1 000010001    1    0  314.80640E+00     0.500
AGRL    1 000010001    1    0  315.80640E+00     0.000
AGRL    1 000010001    1    0  316.80640E+00     0.000
AGRL    1 000010001    1    0  317.80640E+00     0.000
AGRL    1 000010001    1    0  318.80640E+00     0.600
AGRL    1 000010001    1    0  319.80640E+00    54.200
AGRL    1 000010001    1    0  320.80640E+00    47.400
AGRL    1 000010001    1    0  321.80640E+00     0.000
AGRL    1 000010001    1    0  322.80640E+00     1.200
AGRL    1 000010001    1    0  323.80640E+00     0.100
AGRL    1 000010001    1    0  324.80640E+00     0.000
AGRL    1 000010001    1    0  325.80640E+00     0.000
AGRL    1 000010001    1    0  326.80640E+00     1.100
AGRL    1 000010001    1    0  327.80640E+00     0.500
AGRL    1 000010001    1    0  328.80640E+00     3.900
AGRL    1 000010001    1    0  329.80640E+00    16.700
AGRL    1 000010001    1    0  330.80640E+00     0.100
AGRL    1 000010001    1    0  331.80640E+00     8.800
AGRL    1 000010001    1    0  332.80640E+00     0.000
AGRL    1 000010001    1    0  333.80640E+00     0.100
AGRL    1 000010001    1    0  334.80640E+00     0.000
AGRL    1 000010001    1    0  335.80640E+00     0.000
AGRL    1 000010001    1    0  336.80640E+00     0.000
AGRL    1 000010001    1    0  337.80640E+00     0.000
AGRL    1 000010001    1    0  338.80640E+00     0.000
AGRL    1 000010001    1    0  339.80640E+00     0.900
AGRL    1 000010001    1    0  340.80640E+00     3.600
AGRL    1 000010001    1    0  341.80640E+00     0.000
AGRL    1 000010001    1    0  342.80640E+00     0.000
AGRL    1 000010001    1    0  343.80640E+00     0.000
AGRL    1 000010001    1    0  344.80640E+00     0.000
AGRL    1 000010001    1    0  345.80640E+00     0.000
AGRL    1 000010001    1    0  346.80640E+00     0.000
AGRL    1 000010001    1    0  347.80640E+00     9.000
AGRL    1 000010001    1    0  348.80640E+00     4.500
AGRL    1 000010001    1    0  349.80640E+00     0.000
AGRL    1 000010001    1    0  350.80640E+00     0.000
AGRL    1 000010001    1    0  351.80640E+00     0.500
AGRL    1 000010001    1    0  352.80640E+00    14.900
AGRL    1 000010001    1    0  353.80640E+00     8.100
AGRL    1 000010001    1    0  354.80640E+00     0.900
AGRL    1 000010001    1    0  355.80640E+00     2.900
AGRL    1 000010001    1    0  356.80640E+00     0.100
AGRL    1 000010001    1    0  357.80640E+00     1.500
AGRL    1 000010001    1    0  358.80640E+00     3.400
AGRL    1 000010001    1    0  359.80640E+00    11.300
AGRL    1 000010001    1    0  360.80640E+00     8.600
AGRL    1 000010001    1    0  361.80640E+00     0.000
AGRL    1 000010001    1    0  362.80640E+00     0.000
AGRL    1 000010001    1    0  363.80640E+00     0.000
AGRL    1 000010001    1    0  364.80640E+00     0.000
AGRL    1 000010001    1    0  365.80640E+00     0.100
AGRL    1 000010001    1    0    1.80640E+00     0.000
AGRL    1 000010001    1    0    2.80640E+00     0.000
AGRL    1 000010001    1    0    3.80640E+00     7.100
AGRL    1 000010001    1    0    4.80640E+00     0.000
AGRL    1 000010001    1    0    5.80640E+00     0.000
AGRL    1 000010001    1    0    6.80640E+00     0.000
AGRL    1 000010001    1    0    7.80640E+00     5.600
AGRL    1 000010001    1    0    8.80640E+00     0.000
AGRL    1 000010001    1    0    9.80640E+00     0.000
AGRL    1 000010001    1    0   10.80640E+00     0.000
AGRL    1 000010001    1    0   11.80640E+00     0.000
AGRL    1 000010001    1    0   12.80640E+00     0.000
AGRL    1 000010001    1    0   13.80640E+00     0.000
AGRL    1 000010001    1    0   14.80640E+00     0.000
AGRL    1 000010001    1    0   15.80640E+00     0.000
AGRL    1 000010001    1    0   16.80640E+00     0.000
AGRL    1 000010001    1    0   17.80640E+00     0.000
AGRL    1 000010001    1    0   18.80640E+00     0.000
AGRL    1 000010001    1    0   19.80640E+00     0.000
AGRL    1 000010001    1    0   20.80640E+00     0.000
AGRL    1 000010001    1    0   21.80640E+00     0.000
AGRL    1 000010001    1    0   22.80640E+00     0.000
AGRL    1 000010001    1    0   23.80640E+00     0.000
AGRL    1 000010001    1    0   24.80640E+00     0.000
AGRL    1 000010001    1    0   25.80640E+00     0.000
AGRL    1 000010001    1    0   26.80640E+00     0.000
AGRL    1 000010001    1    0   27.80640E+00     0.000
AGRL    1 000010001    1    0   28.80640E+00     0.000
AGRL    1 000010001    1    0   29.80640E+00     0.000
AGRL    1 000010001    1    0   30.80640E+00     0.000
AGRL    1 000010001    1    0   31.80640E+00     0.000
AGRL    1 000010001    1    0   32.80640E+00     0.000
AGRL    1 000010001    1    0   33.80640E+00     0.000
AGRL    1 000010001    1    0   34.80640E+00     0.000
AGRL    1 000010001    1    0   35.80640E+00     0.000
AGRL    1 000010001    1    0   36.80640E+00     0.000
AGRL    1 000010001    1    0   37.80640E+00     0.000
AGRL    1 000010001    1    0   38.80640E+00     1.000
AGRL    1 000010001    1    0   39.80640E+00     0.000
AGRL    1 000010001    1    0   40.80640E+00     0.000
AGRL    1 000010001    1    0   41.80640E+00     0.000
AGRL    1 000010001    1    0   42.80640E+00     0.800
AGRL    1 000010001    1    0   43.80640E+00     0.000
AGRL    1 000010001    1    0   44.80640E+00     0.000
AGRL    1 000010001    1    0   45.80640E+00     0.000
AGRL    1 000010001    1    0   46.80640E+00     0.000
AGRL    1 000010001    1    0   47.80640E+00     0.000
AGRL    1 000010001    1    0   48.80640E+00     0.000
AGRL    1 000010001    1    0   49.80640E+00    30.000
AGRL    1 000010001    1    0   50.80640E+00     3.600
AGRL    1 000010001    1    0   51.80640E+00     0.000
AGRL    1 000010001    1    0   52.80640E+00     0.000
AGRL    1 000010001    1    0   53.80640E+00     0.000
AGRL    1 000010001    1    0   54.80640E+00     0.000
AGRL    1 000010001    1    0   55.80640E+00     0.000
AGRL    1 000010001    1    0   56.80640E+00     0.000
AGRL    1 000010001    1    0   57.80640E+00     0.000
AGRL    1 000010001    1    0   58.80640E+00     0.000
AGRL    1 000010001    1    0   59.80640E+00     0.000
AGRL    1 000010001    1    0   60.80640E+00     0.000
AGRL    1 000010001    1    0   61.80640E+00     0.000
AGRL    1 000010001    1    0   62.80640E+00     1.500
AGRL    1 000010001    1    0   63.80640E+00    24.100
AGRL    1 000010001    1    0   64.80640E+00     1.300
AGRL    1 000010001    1    0   65.80640E+00     0.000
AGRL    1 000010001    1    0   66.80640E+00     0.000
AGRL    1 000010001    1    0   67.80640E+00     0.000
AGRL    1 000010001    1    0   68.80640E+00     0.000
AGRL    1 000010001    1    0   69.80640E+00     3.300
AGRL    1 000010001    1    0   70.80640E+00     0.000
AGRL    1 000010001    1    0   71.80640E+00     0.000
AGRL    1 000010001    1    0   72.80640E+00     0.000
AGRL    1 000010001    1    0   73.80640E+00     0.000
AGRL    1 000010001    1    0   74.80640E+00     0.000
AGRL    1 000010001    1    0   75.80640E+00     0.000
AGRL    1 000010001    1    0   76.80640E+00     0.000
AGRL    1 000010001    1    0   77.80640E+00     0.000
AGRL    1 000010001    1    0   78.80640E+00    28.700
AGRL    1 000010001    1    0   79.80640E+00     0.000
AGRL    1 000010001    1    0   80.80640E+00     0.000
AGRL    1 000010001    1    0   81.80640E+00     0.000
AGRL    1 000010001    1    0   82.80640E+00     0.000
AGRL    1 000010001    1    0   83.80640E+00     0.000
AGRL    1 000010001    1    0   84.80640E+00     0.000
AGRL    1 000010001    1    0   85.80640E+00     0.000
AGRL    1 000010001    1    0   86.80640E+00     0.000
AGRL    1 000010001    1    0   87.80640E+00     0.000
AGRL    1 000010001    1    0   88.80640E+00     0.000
AGRL    1 000010001    1    0   89.80640E+00     0.000
AGRL    1 000010001    1    0   90.80640E+00    18.500
AGRL    1 000010001    1    0   91.80640E+00     0.500
AGRL    1 000010001    1    0   92.80640E+00     1.800
AGRL    1 000010001    1    0   93.80640E+00    15.500
AGRL    1 000010001    1    0   94.80640E+00     0.000
AGRL    1 000010001    1    0   95.80640E+00     0.000
AGRL    1 000010001    1    0   96.80640E+00     0.000
AGRL    1 000010001    1    0   97.80640E+00     0.000
AGRL    1 000010001    1    0   98.80640E+00     0.000
AGRL    1 000010001    1    0   99.80640E+00     0.000
AGRL    1 000010001    1    0  100.80640E+00     0.500
AGRL    1 000010001    1    0  101.80640E+00     0.000
AGRL    1 000010001    1    0  102.80640E+00     0.000
AGRL    1 000010001    1    0  103.80640E+00     0.000
AGRL    1 000010001    1    0  104.80640E+00     0.000
AGRL    1 000010001    1    0  105.80640E+00     0.000
AGRL    1 000010001    1    0  106.80640E+00     0.000
AGRL    1 000010001    1    0  107.80640E+00     0.000
AGRL    1 000010001    1    0  108.80640E+00     0.000
AGRL    1 000010001    1    0  109.80640E+00     4.100
AGRL    1 000010001    1    0  110.80640E+00     0.000
AGRL    1 000010001    1    0  111.80640E+00     0.000
AGRL    1 000010001    1    0  112.80640E+00     0.000
AGRL    1 000010001    1    0  113.80640E+00     0.000
AGRL    1 000010001    1    0  114.80640E+00     3.000
AGRL    1 000010001    1    0  115.80640E+00     0.000
AGRL    1 000010001    1    0  116.80640E+00     1.300
AGRL    1 000010001    1    0  117.80640E+00     0.000
AGRL    1 000010001    1    0  118.80640E+00     0.000
AGRL    1 000010001    1    0  119.80640E+00     0.000
AGRL    1 000010001    1    0  120.80640E+00     1.500
AGRL    1 000010001    1    0  121.80640E+00    10.200
AGRL    1 000010001    1    0  122.80640E+00     0.000
AGRL    1 000010001    1    0  123.80640E+00     0.000
AGRL    1 000010001    1    0  124.80640E+00     0.000
AGRL    1 000010001    1    0  125.80640E+00     0.000
AGRL    1 000010001    1    0  126.80640E+00     0.000
AGRL    1 000010001    1    0  127.80640E+00     0.000
AGRL    1 000010001    1    0  128.80640E+00     0.000
AGRL    1 000010001    1    0  129.80640E+00     2.500
AGRL    1 000010001    1    0  130.80640E+00     0.000
AGRL    1 000010001    1    0  131.80640E+00    43.200
AGRL    1 000010001    1    0  132.80640E+00     0.500
AGRL    1 000010001    1    0  133.80640E+00     1.500
AGRL    1 000010001    1    0  134.80640E+00     0.000
AGRL    1 000010001    1    0  135.80640E+00     0.000
AGRL    1 000010001    1    0  136.80640E+00     0.000
AGRL    1 000010001    1    0  137.80640E+00     2.000
AGRL    1 000010001    1    0  138.80640E+00     0.000
AGRL    1 000010001    1    0  139.80640E+00     0.000
AGRL    1 000010001    1    0  140.80640E+00     0.000
AGRL    1 000010001    1    0  141.80640E+00     0.000
AGRL    1 000010001    1    0  142.80640E+00    13.500
AGRL    1 000010001    1    0  143.80640E+00     0.000
AGRL    1 000010001    1    0  144.80640E+00     0.000
AGRL    1 000010001    1    0  145.80640E+00     0.000
AGRL    1 000010001    1    0  146.80640E+00     0.000
AGRL    1 000010001    1    0  147.80640E+00     0.000
AGRL    1 000010001    1    0  148.80640E+00     0.000
AGRL    1 000010001    1    0  149.80640E+00     0.000
AGRL    1 000010001    1    0  150.80640E+00     0.000
AGRL    1 000010001    1    0  151.80640E+00    20.300
AGRL    1 000010001    1    0  152.80640E+00     0.000
AGRL    1 000010001    1    0  153.80640E+00    50.800
AGRL    1 000010001    1    0  154.80640E+00     0.000
AGRL    1 000010001    1    0  155.80640E+00    20.300
AGRL    1 000010001    1    0  156.80640E+00    57.400
AGRL    1 000010001    1    0  157.80640E+00     0.000
AGRL    1 000010001    1    0  158.80640E+00     0.000
AGRL    1 000010001    1    0  159.80640E+00     0.000
AGRL    1 000010001    1    0  160.80640E+00     0.000
AGRL    1 000010001    1    0  161.80640E+00     0.000
AGRL    1 000010001    1    0  162.80640E+00     0.000
AGRL    1 000010001    1    0  163.80640E+00     0.000
AGRL    1 000010001    1    0  164.80640E+00     0.000
AGRL    1 000010001    1    0  165.80640E+00     0.000
AGRL    1 000010001    1    0  166.80640E+00     0.000
AGRL    1 000010001    1    0  167.80640E+00     0.000
AGRL    1 000010001    1    0  168.80640E+00     0.000
AGRL    1 000010001    1    0  169.80640E+00     0.000
AGRL    1 000010001    1    0  170.80640E+00     0.000
AGRL    1 000010001    1    0  171.80640E+00     0.000
AGRL    1 000010001    1    0  172.80640E+00     0.000
AGRL    1 000010001    1    0  173.80640E+00     0.000
AGRL    1 000010001    1    0  174.80640E+00     0.000
AGRL    1 000010001    1    0  175.80640E+00     0.000
AGRL    1 000010001    1    0  176.80640E+00     0.000
AGRL    1 000010001    1    0  177.80640E+00     0.000
AGRL    1 000010001    1    0  178.80640E+00    20.800
AGRL    1 000010001    1    0  179.80640E+00     2.000
AGRL    1 000010001    1    0  180.80640E+00     0.000
AGRL    1 000010001    1    0  181.80640E+00     0.000
AGRL    1 000010001    1    0  182.80640E+00     0.000
AGRL    1 000010001    1    0  183.80640E+00     0.000
AGRL    1 000010001    1    0  184.80640E+00     0.000
AGRL    1 000010001    1    0  185.80640E+00     0.000
AGRL    1 000010001    1    0  186.80640E+00     0.800
AGRL    1 000010001    1    0  187.80640E+00     0.000
AGRL    1 000010001    1    0  188.80640E+00     5.600
AGRL    1 000010001    1    0  189.80640E+00     0.000
AGRL    1 000010001    1    0  190.80640E+00     0.000
AGRL    1 000010001    1    0  191.80640E+00     0.000
AGRL    1 000010001    1    0  192.80640E+00     0.000
AGRL    1 000010001    1    0  193.80640E+00     0.000
AGRL    1 000010001    1    0  194.80640E+00     9.400
AGRL    1 000010001    1    0  195.80640E+00     0.300
AGRL    1 000010001    1    0  196.80640E+00     0.000
AGRL    1 000010001    1    0  197.80640E+00     0.000
AGRL    1 000010001    1    0  198.80640E+00     0.000
AGRL    1 000010001    1    0  199.80640E+00     0.000
AGRL    1 000010001    1    0  200.80640E+00     0.000
AGRL    1 000010001    1    0  201.80640E+00     0.000
AGRL    1 000010001    1    0  202.80640E+00     0.000
AGRL    1 000010001    1    0  203.80640E+00    15.500
AGRL    1 000010001    1    0  204.80640E+00     0.000
AGRL    1 000010001    1    0  205.80640E+00     0.000
AGRL    1 000010001    1    0  206.80640E+00     0.000
AGRL    1 000010001    1    0  207.80640E+00     0.000
AGRL    1 000010001    1    0  208.80640E+00     0.000
AGRL    1 000010001    1    0  209.80640E+00     0.000
AGRL    1 000010001    1    0  210.80640E+00     0.000
AGRL    1 000010001    1    0  211.80640E+00     0.000
AGRL    1 000010001    1    0  212.80640E+00     0.000
AGRL    1 000010001    1    0  213.80640E+00     0.000
AGRL    1 000010001    1    0  214.80640E+00    19.600
AGRL    1 000010001    1    0  215.80640E+00     0.800
AGRL    1 000010001    1    0  216.80640E+00    14.000
AGRL    1 000010001    1    0  217.80640E+00     0.000
AGRL    1 000010001    1    0  218.80640E+00     0.000
AGRL    1 000010001    1    0  219.80640E+00     0.000
AGRL    1 000010001    1    0  220.80640E+00     0.000
AGRL    1 000010001    1    0  221.80640E+00     0.000
AGRL    1 000010001    1    0  222.80640E+00     0.000
AGRL    1 000010001    1    0  223.80640E+00     0.000
AGRL    1 000010001    1    0  224.80640E+00    31.200
AGRL    1 000010001    1    0  225.80640E+00     0.000
AGRL    1 000010001    1    0  226.80640E+00     0.000
AGRL    1 000010001    1    0  227.80640E+00     0.000
AGRL    1 000010001    1    0  228.80640E+00     0.000
AGRL    1 000010001    1    0  229.80640E+00     0.000
AGRL    1 000010001    1    0  230.80640E+00    36.800
AGRL    1 000010001    1    0  231.80640E+00     0.000
AGRL    1 000010001    1    0  232.80640E+00     0.000
AGRL    1 000010001    1    0  233.80640E+00     0.000
AGRL    1 000010001    1    0  234.80640E+00     0.000
AGRL    1 000010001    1    0  235.80640E+00     0.000
AGRL    1 000010001    1    0  236.80640E+00     0.000
AGRL    1 000010001    1    0  237.80640E+00     0.800
AGRL    1 000010001    1    0  238.80640E+00     0.000
AGRL    1 000010001    1    0  239.80640E+00     0.000
AGRL    1 000010001    1    0  240.80640E+00     0.000
AGRL    1 000010001    1    0  241.80640E+00     0.000
AGRL    1 000010001    1    0  242.80640E+00     0.000
AGRL    1 000010001    1    0  243.80640E+00     0.000
AGRL    1 000010001    1    0  244.80640E+00     0.000
AGRL    1 000010001    1    0  245.80640E+00     0.000
AGRL    1 000010001    1    0  246.80640E+00     4.100
AGRL    1 000010001    1    0  247.80640E+00     3.000
AGRL    1 000010001    1    0  248.80640E+00     0.000
AGRL    1 000010001    1    0  249.80640E+00     0.000
AGRL    1 000010001    1    0  250.80640E+00     0.000
AGRL    1 000010001    1    0  251.80640E+00     0.000
AGRL    1 000010001    1    0  252.80640E+00     0.000
AGRL    1 000010001    1    0  253.80640E+00     0.000
AGRL    1 000010001    1    0  254.80640E+00     0.000
AGRL    1 000010001    1    0  255.80640E+00     0.000
AGRL    1 000010001    1    0  256.80640E+00     0.000
AGRL    1 000010001    1    0  257.80640E+00    10.700
AGRL    1 000010001    1    0  258.80640E+00     0.000
AGRL    1 000010001    1    0  259.80640E+00     0.000
AGRL    1 000010001    1    0  260.80640E+00     0.000
AGRL    1 000010001    1    0  261.80640E+00     0.000
AGRL    1 000010001    1    0  262.80640E+00    16.800
AGRL    1 000010001    1    0  263.80640E+00     0.000
AGRL    1 000010001    1    0  264.80640E+00     8.100
AGRL    1 000010001    1    0  265.80640E+00     0.000
AGRL    1 000010001    1    0  266.80640E+00     0.000
AGRL    1 000010001    1    0  267.80640E+00     0.000
AGRL    1 000010001    1    0  268.80640E+00     0.000
AGRL    1 000010001    1    0  269.80640E+00     0.000
AGRL    1 000010001    1    0  270.80640E+00     0.000
AGRL    1 000010001    1    0  271.80640E+00     0.000
AGRL    1 000010001    1    0  272.80640E+00     0.000
AGRL    1 000010001    1    0  273.80640E+00    16.800
AGRL    1 000010001    1    0  274.80640E+00    57.900
AGRL    1 000010001    1    0  275.80640E+00     7.900
AGRL    1 000010001    1    0  276.80640E+00     1.800
AGRL    1 000010001    1    0  277.80640E+00     0.000
AGRL    1 000010001    1    0  278.80640E+00     0.000
AGRL    1 000010001    1    0  279.80640E+00     0.000
AGRL    1 000010001    1    0  280.80640E+00     0.000
AGRL    1 000010001    1    0  281.80640E+00     0.000
AGRL    1 000010001    1    0  282.80640E+00     0.000
AGRL    1 000010001    1    0  283.80640E+00     0.000
AGRL    1 000010001    1    0  284.80640E+00     0.000
AGRL    1 000010001    1    0  285.80640E+00     0.000
AGRL    1 000010001    1    0  286.80640E+00     0.000
AGRL    1 000010001    1    0  287.80640E+00     0.000
AGRL    1 000010001    1    0  288.80640E+00     0.000
AGRL    1 000010001    1    0  289.80640E+00     0.000
AGRL    1 000010001    1    0  290.80640E+00     0.000
AGRL    1 000010001    1    0  291.80640E+00     0.000
AGRL    1 000010001    1    0  292.80640E+00     0.000
AGRL    1 000010001    1    0  293.80640E+00     0.000
AGRL    1 000010001    1    0  294.80640E+00     0.000
AGRL    1 000010001    1    0  295.80640E+00     0.000
AGRL    1 000010001    1    0  296.80640E+00     0.000
AGRL    1 000010001    1    0  297.80640E+00     0.000
AGRL    1 000010001    1    0  298.80640E+00     0.000
AGRL    1 000010001    1    0  299.80640E+00     0.000
AGRL    1 000010001    1    0  300.80640E+00     0.000
AGRL    1 000010001    1    0  301.80640E+00     0.000
AGRL    1 000010001    1    0  302.80640E+00     0.000
AGRL    1 000010001    1    0  303.80640E+00     3.300
AGRL    1 000010001    1    0  304.80640E+00     0.000
AGRL    1 000010001    1    0  305.80640E+00    24.900
AGRL    1 000010001    1    0  306.80640E+00     0.000
AGRL    1 000010001    1    0  307.80640E+00     0.000
AGRL    1 000010001    1    0  308.80640E+00     0.000
AGRL    1 000010001    1    0  309.80640E+00     0.000
AGRL    1 000010001    1    0  310.80640E+00     0.000
AGRL    1 000010001    1    0  311.80640E+00     0.000
AGRL    1 000010001    1    0  312.80640E+00     0.000
AGRL    1 000010001    1    0  313.80640E+00     0.000
AGRL    1 000010001    1    0  314.80640E+00     0.000
AGRL    1 000010001    1    0  315.80640E+00     0.000
AGRL    1 000010001    1    0  316.80640E+00     0.000
AGRL    1 000010001    1    0  317.80640E+00     0.000
AGRL    1 000010001    1    0  318.80640E+00     0.000
AGRL    1 000010001    1    0  319.80640E+00     0.000
AGRL    1 000010001    1    0  320.80640E+00     0.000
AGRL    1 000010001    1    0  321.80640E+00     5.100
AGRL    1 000010001    1    0  322.80640E+00     0.000
AGRL    1 000010001    1    0  323.80640E+00     1.800
AGRL    1 000010001    1    0  324.80640E+00     0.000
AGRL    1 000010001    1    0  325.80640E+00    16.800
AGRL    1 000010001    1    0  326.80640E+00     0.000
AGRL    1 000010001    1    0  327.80640E+00     0.000
AGRL    1 000010001    1    0  328.80640E+00     0.000
AGRL    1 000010001    1    0  329.80640E+00     0.000
AGRL    1 000010001    1    0  330.80640E+00     0.000
AGRL    1 000010001    1    0  331.80640E+00    31.000
AGRL    1 000010001    1    0  332.80640E+00     0.000
AGRL    1 000010001    1    0  333.80640E+00     0.000
AGRL    1 000010001    1    0  334.80640E+00     0.000
AGRL    1 000010001    1    0  335.80640E+00     0.000
AGRL    1 000010001    1    0  336.80640E+00     0.000
AGRL    1 000010001    1    0  337.80640E+00     0.000
AGRL    1 000010001    1    0  338.80640E+00     0.000
AGRL    1 000010001    1    0  339.80640E+00     0.000
AGRL    1 000010001    1    0  340.80640E+00     0.000
AGRL    1 000010001    1    0  341.80640E+00     0.000
AGRL    1 000010001    1    0  342.80640E+00     0.000
AGRL    1 000010001    1    0  343.80640E+00     8.600
AGRL    1 000010001    1    0  344.80640E+00     1.500
AGRL    1 000010001    1    0  345.80640E+00    17.300
AGRL    1 000010001    1    0  346.80640E+00    14.700
AGRL    1 000010001    1    0  347.80640E+00     0.000
AGRL    1 000010001    1    0  348.80640E+00     0.000
AGRL    1 000010001    1    0  349.80640E+00     0.000
AGRL    1 000010001    1    0  350.80640E+00     0.000
AGRL    1 000010001    1    0  351.80640E+00     0.000
[...]
AGRL    1 000010001    1    0    3.80640E+00     0.000
AGRL    1 000010001    1    0    4.80640E+00     0.000
AGRL    1 000010001    1    0    5.80640E+00     0.000
AGRL    1 000010001    1    0    6.80640E+00     0.000
AGRL    1 000010001    1    0    7.80640E+00     0.000
AGRL    1 000010001    1    0    8.80640E+00     0.000
AGRL    1 000010001    1    0    9.80640E+00     0.000
AGRL    1 000010001    1    0   10.80640E+00     0.000
AGRL    1 000010001    1    0   11.80640E+00     0.000
AGRL    1 000010001    1    0   12.80640E+00     0.000
AGRL    1 000010001    1    0   13.80640E+00     4.600
AGRL    1 000010001    1    0   14.80640E+00     6.600
AGRL    1 000010001    1    0   15.80640E+00     0.000
AGRL    1 000010001    1    0   16.80640E+00     0.000
AGRL    1 000010001    1    0   17.80640E+00     0.000
AGRL    1 000010001    1    0   18.80640E+00     0.000
AGRL    1 000010001    1    0   19.80640E+00     0.500
AGRL    1 000010001    1    0   20.80640E+00    15.200
AGRL    1 000010001    1    0   21.80640E+00     0.000
AGRL    1 000010001    1    0   22.80640E+00     0.000
AGRL    1 000010001    1    0   23.80640E+00     0.000
AGRL    1 000010001    1    0   24.80640E+00     0.000
AGRL    1 000010001    1    0   25.80640E+00     2.500
AGRL    1 000010001    1    0   26.80640E+00     7.100
AGRL    1 000010001    1    0   27.80640E+00     0.000
AGRL    1 000010001    1    0   28.80640E+00    25.400
AGRL    1 000010001    1    0   29.80640E+00     7.900
AGRL    1 000010001    1    0   30.80640E+00     9.100
AGRL    1 000010001    1    0   31.80640E+00     0.000
AGRL    1 000010001    1    0   32.80640E+00     0.000
AGRL    1 000010001    1    0   33.80640E+00     0.000
AGRL    1 000010001    1    0   34.80640E+00     8.100
AGRL    1 000010001    1    0   35.80640E+00     0.000
AGRL    1 000010001    1    0   36.80640E+00     0.000
AGRL    1 000010001    1    0   37.80640E+00     0.500
AGRL    1 000010001    1    0   38.80640E+00     0.000
AGRL    1 000010001    1    0   39.80640E+00     0.000
AGRL    1 000010001    1    0   40.80640E+00     0.000
AGRL    1 000010001    1    0   41.80640E+00     0.000
AGRL    1 000010001    1    0   42.80640E+00     0.000
AGRL    1 000010001    1    0   43.80640E+00     1.500
AGRL    1 000010001    1    0   44.80640E+00     2.800
AGRL    1 000010001    1    0   45.80640E+00     0.000
AGRL    1 000010001    1    0   46.80640E+00     0.500
AGRL    1 000010001    1    0   47.80640E+00    20.300
AGRL    1 000010001    1    0   48.80640E+00    13.000
AGRL    1 000010001    1    0   49.80640E+00    26.700
AGRL    1 000010001    1    0   50.80640E+00     0.800
AGRL    1 000010001    1    0   51.80640E+00     0.800
AGRL    1 000010001    1    0   52.80640E+00     0.000
AGRL    1 000010001    1    0   53.80640E+00     0.000
AGRL    1 000010001    1    0   54.80640E+00     0.000
AGRL    1 000010001    1    0   55.80640E+00     0.000
AGRL    1 000010001    1    0   56.80640E+00     0.000
AGRL    1 000010001    1    0   57.80640E+00     0.000
AGRL    1 000010001    1    0   58.80640E+00     0.000
AGRL    1 000010001    1    0   59.80640E+00     0.000
AGRL    1 000010001    1    0   60.80640E+00     0.000
AGRL    1 000010001    1    0   61.80640E+00     0.800
AGRL    1 000010001    1    0   62.80640E+00     0.000
AGRL    1 000010001    1    0   63.80640E+00     5.800
AGRL    1 000010001    1    0   64.80640E+00     0.000
AGRL    1 000010001    1    0   65.80640E+00     0.000
AGRL    1 000010001    1    0   66.80640E+00     0.000
AGRL    1 000010001    1    0   67.80640E+00     0.000
AGRL    1 000010001    1    0   68.80640E+00     0.000
AGRL    1 000010001    1    0   69.80640E+00     0.000
AGRL    1 000010001    1    0   70.80640E+00     0.000
AGRL    1 000010001    1    0   71.80640E+00     0.000
AGRL    1 000010001    1    0   72.80640E+00     0.000
AGRL    1 000010001    1    0   73.80640E+00     0.000
AGRL    1 000010001    1    0   74.80640E+00     0.000
AGRL    1 000010001    1    0   75.80640E+00     0.000
AGRL    1 000010001    1    0   76.80640E+00     0.000
AGRL    1 000010001    1    0   77.80640E+00     0.000
AGRL    1 000010001    1    0   78.80640E+00     0.000
AGRL    1 000010001    1    0   79.80640E+00     0.000
AGRL    1 000010001    1    0   80.80640E+00     3.000
AGRL    1 000010001    1    0   81.80640E+00     3.300
AGRL    1 000010001    1    0   82.80640E+00     0.000
AGRL    1 000010001    1    0   83.80640E+00     0.000
AGRL    1 000010001    1    0   84.80640E+00     0.000
AGRL    1 000010001    1    0   85.80640E+00     0.000
AGRL    1 000010001    1    0   86.80640E+00     0.000
AGRL    1 000010001    1    0   87.80640E+00    16.000
AGRL    1 000010001    1    0   88.80640E+00    18.500
AGRL    1 000010001    1    0   89.80640E+00     0.000
AGRL    1 000010001    1    0   90.80640E+00     0.000
AGRL    1 000010001    1    0   91.80640E+00     0.000
AGRL    1 000010001    1    0   92.80640E+00     0.000
AGRL    1 000010001    1    0   93.80640E+00     0.000
AGRL    1 000010001    1    0   94.80640E+00     0.000
AGRL    1 000010001    1    0   95.80640E+00     0.000
AGRL    1 000010001    1    0   96.80640E+00     0.000
AGRL    1 000010001    1    0   97.80640E+00     0.000
AGRL    1 000010001    1    0   98.80640E+00     0.000
AGRL    1 000010001    1    0   99.80640E+00     0.000
AGRL    1 000010001    1    0  100.80640E+00     0.000
AGRL    1 000010001    1    0  101.80640E+00     0.000
AGRL    1 000010001    1    0  102.80640E+00     0.000
AGRL    1 000010001    1    0  103.80640E+00     0.000
AGRL    1 000010001    1    0  104.80640E+00    19.100
AGRL    1 000010001    1    0  105.80640E+00     0.000
AGRL    1 000010001    1    0  106.80640E+00     0.000
AGRL    1 000010001    1    0  107.80640E+00     0.000
AGRL    1 000010001    1    0  108.80640E+00     0.000
AGRL    1 000010001    1    0  109.80640E+00     3.600
AGRL    1 000010001    1    0  110.80640E+00     0.000
AGRL    1 000010001    1    0  111.80640E+00     0.000
AGRL    1 000010001    1    0  112.80640E+00     0.000
AGRL    1 000010001    1    0  113.80640E+00     0.000
AGRL    1 000010001    1    0  114.80640E+00     0.000
AGRL    1 000010001    1    0  115.80640E+00     0.000
AGRL    1 000010001    1    0  116.80640E+00     0.000
AGRL    1 000010001    1    0  117.80640E+00     0.000
AGRL    1 000010001    1    0  118.80640E+00     0.000
AGRL    1 000010001    1    0  119.80640E+00     0.500
AGRL    1 000010001    1    0  120.80640E+00     4.600
AGRL    1 000010001    1    0  121.80640E+00     0.000
AGRL    1 000010001    1    0  122.80640E+00     0.000
AGRL    1 000010001    1    0  123.80640E+00     3.000
AGRL    1 000010001    1    0  124.80640E+00    19.100
AGRL    1 000010001    1    0  125.80640E+00    18.300
AGRL    1 000010001    1    0  126.80640E+00     0.000
AGRL    1 000010001    1    0  127.80640E+00     0.000
AGRL    1 000010001    1    0  128.80640E+00     8.100
AGRL    1 000010001    1    0  129.80640E+00     0.000
AGRL    1 000010001    1    0  130.80640E+00     0.000
AGRL    1 000010001    1    0  131.80640E+00     0.000
AGRL    1 000010001    1    0  132.80640E+00     0.000
AGRL    1 000010001    1    0  133.80640E+00     1.500
AGRL    1 000010001    1    0  134.80640E+00    20.600
AGRL    1 000010001    1    0  135.80640E+00     0.000
AGRL    1 000010001    1    0  136.80640E+00     0.000
AGRL    1 000010001    1    0  137.80640E+00    53.300
AGRL    1 000010001    1    0  138.80640E+00     8.600
AGRL    1 000010001    1    0  139.80640E+00     0.000
AGRL    1 000010001    1    0  140.80640E+00     0.000
AGRL    1 000010001    1    0  141.80640E+00     0.000
AGRL    1 000010001    1    0  142.80640E+00     0.000
AGRL    1 000010001    1    0  143.80640E+00     0.000
AGRL    1 000010001    1    0  144.80640E+00     0.000
AGRL    1 000010001    1    0  145.80640E+00     0.000
AGRL    1 000010001    1    0  146.80640E+00     0.000
AGRL    1 000010001    1    0  147.80640E+00     0.000
AGRL    1 000010001    1    0  148.80640E+00     0.000
AGRL    1 000010001    1    0  149.80640E+00     0.000
AGRL    1 000010001    1    0  150.80640E+00     0.000
AGRL    1 000010001    1    0  151.80640E+00     0.000
AGRL    1 000010001    1    0  152.80640E+00     0.000
AGRL    1 000010001    1    0  153.80640E+00     0.000
AGRL    1 000010001    1    0  154.80640E+00     0.800
AGRL    1 000010001    1    0  155.80640E+00     0.000
AGRL    1 000010001    1    0  156.80640E+00     5.100
AGRL    1 000010001    1    0  157.80640E+00     0.000
AGRL    1 000010001    1    0  158.80640E+00     0.000
AGRL    1 000010001    1    0  159.80640E+00     1.000
AGRL    1 000010001    1    0  160.80640E+00     0.000
AGRL    1 000010001    1    0  161.80640E+00     0.000
AGRL    1 000010001    1    0  162.80640E+00    23.100
AGRL    1 000010001    1    0  163.80640E+00     0.000
AGRL    1 000010001    1    0  164.80640E+00    15.500
AGRL    1 000010001    1    0  165.80640E+00    58.900
AGRL    1 000010001    1    0  166.80640E+00     4.800
AGRL    1 000010001    1    0  167.80640E+00     0.000
AGRL    1 000010001    1    0  168.80640E+00     0.000
AGRL    1 000010001    1    0  169.80640E+00     0.000
AGRL    1 000010001    1    0  170.80640E+00     0.000
AGRL    1 000010001    1    0  171.80640E+00     0.000
AGRL    1 000010001    1    0  172.80640E+00     0.000
AGRL    1 000010001    1    0  173.80640E+00     0.000
AGRL    1 000010001    1    0  174.80640E+00     0.000
AGRL    1 000010001    1    0  175.80640E+00     0.000
AGRL    1 000010001    1    0  176.80640E+00     4.100
AGRL    1 000010001    1    0  177.80640E+00     0.000
AGRL    1 000010001    1    0  178.80640E+00    21.300
AGRL    1 000010001    1    0  179.80640E+00     0.000
AGRL    1 000010001    1    0  180.80640E+00     0.000
AGRL    1 000010001    1    0  181.80640E+00     0.800
AGRL    1 000010001    1    0  182.80640E+00     0.000
AGRL    1 000010001    1    0  183.80640E+00     0.000
AGRL    1 000010001    1    0  184.80640E+00    24.400
AGRL    1 000010001    1    0  185.80640E+00     0.000
AGRL    1 000010001    1    0  186.80640E+00     0.000
AGRL    1 000010001    1    0  187.80640E+00     0.000
AGRL    1 000010001    1    0  188.80640E+00     0.000
AGRL    1 000010001    1    0  189.80640E+00    11.400
AGRL    1 000010001    1    0  190.80640E+00     1.000
AGRL    1 000010001    1    0  191.80640E+00     0.000
AGRL    1 000010001    1    0  192.80640E+00     0.000
AGRL    1 000010001    1    0  193.80640E+00     0.000
AGRL    1 000010001    1    0  194.80640E+00     0.000
AGRL    1 000010001    1    0  195.80640E+00     0.000
AGRL    1 000010001    1    0  196.80640E+00     0.000
AGRL    1 000010001    1    0  197.80640E+00     0.000
AGRL    1 000010001    1    0  198.80640E+00     0.000
AGRL    1 000010001    1    0  199.80640E+00     0.000
AGRL    1 000010001    1    0  200.80640E+00     0.800
AGRL    1 000010001    1    0  201.80640E+00     0.000
AGRL    1 000010001    1    0  202.80640E+00     0.000
AGRL    1 000010001    1    0  203.80640E+00     0.000
AGRL    1 000010001    1    0  204.80640E+00     0.000
AGRL    1 000010001    1    0  205.80640E+00    25.900
AGRL    1 000010001    1    0  206.80640E+00     0.000
AGRL    1 000010001    1    0  207.80640E+00     0.000
AGRL    1 000010001    1    0  208.80640E+00     0.000
AGRL    1 000010001    1    0  209.80640E+00     0.000
AGRL    1 000010001    1    0  210.80640E+00     0.000
AGRL    1 000010001    1    0  211.80640E+00     0.000
AGRL    1 000010001    1    0  212.80640E+00     0.000
AGRL    1 000010001    1    0  213.80640E+00     0.000
AGRL    1 000010001    1    0  214.80640E+00    62.500
AGRL    1 000010001    1    0  215.80640E+00     0.000
AGRL    1 000010001    1    0  216.80640E+00     0.000
AGRL    1 000010001    1    0  217.80640E+00     0.000
AGRL    1 000010001    1    0  218.80640E+00     0.000
AGRL    1 000010001    1    0  219.80640E+00    20.100
AGRL    1 000010001    1    0  220.80640E+00    13.700
AGRL    1 000010001    1    0  221.80640E+00     0.000
AGRL    1 000010001    1    0  222.80640E+00     0.000
AGRL    1 000010001    1    0  223.80640E+00     0.000
AGRL    1 000010001    1    0  224.80640E+00     0.000
AGRL    1 000010001    1    0  225.80640E+00     0.000
AGRL    1 000010001    1    0  226.80640E+00     2.300
AGRL    1 000010001    1    0  227.80640E+00     4.600
AGRL    1 000010001    1    0  228.80640E+00     0.000
AGRL    1 000010001    1    0  229.80640E+00     0.000
AGRL    1 000010001    1    0  230.80640E+00     0.000
AGRL    1 000010001    1    0  231.80640E+00     0.000
AGRL    1 000010001    1    0  232.80640E+00     0.000
AGRL    1 000010001    1    0  233.80640E+00     0.000
AGRL    1 000010001    1    0  234.80640E+00     0.000
AGRL    1 000010001    1    0  235.80640E+00     0.000
AGRL    1 000010001    1    0  236.80640E+00     0.000
AGRL    1 000010001    1    0  237.80640E+00     0.000
AGRL    1 000010001    1    0  238.80640E+00     0.000
AGRL    1 000010001    1    0  239.80640E+00     0.000
AGRL    1 000010001    1    0  240.80640E+00     0.000
AGRL    1 000010001    1    0  241.80640E+00     0.000
AGRL    1 000010001    1    0  242.80640E+00     0.000
AGRL    1 000010001    1    0  243.80640E+00     0.000
AGRL    1 000010001    1    0  244.80640E+00     0.000
AGRL    1 000010001    1    0  245.80640E+00     0.000
AGRL    1 000010001    1    0  246.80640E+00     0.000
AGRL    1 000010001    1    0  247.80640E+00     0.000
AGRL    1 000010001    1    0  248.80640E+00     0.000
AGRL    1 000010001    1    0  249.80640E+00     0.000
AGRL    1 000010001    1    0  250.80640E+00     0.000
AGRL    1 000010001    1    0  251.80640E+00     0.000
AGRL    1 000010001    1    0  252.80640E+00     0.000
AGRL    1 000010001    1    0  253.80640E+00     0.000
AGRL    1 000010001    1    0  254.80640E+00     0.000
AGRL    1 000010001    1    0  255.80640E+00     0.000
AGRL    1 000010001    1    0  256.80640E+00     0.000
AGRL    1 000010001    1    0  257.80640E+00    11.900
AGRL    1 000010001    1    0  258.80640E+00     0.000
AGRL    1 000010001    1    0  259.80640E+00     0.000
AGRL    1 000010001    1    0  260.80640E+00     0.000
AGRL    1 000010001    1    0  261.80640E+00     0.000
AGRL    1 000010001    1    0  262.80640E+00     0.000
AGRL    1 000010001    1    0  263.80640E+00     0.000
AGRL    1 000010001    1    0  264.80640E+00     0.000
AGRL    1 000010001    1    0  265.80640E+00     0.000
AGRL    1 000010001    1    0  266.80640E+00     0.000
AGRL    1 000010001    1    0  267.80640E+00     0.000
AGRL    1 000010001    1    0  268.80640E+00     0.000
AGRL    1 000010001    1    0  269.80640E+00     0.000
AGRL    1 000010001    1    0  270.80640E+00     0.000
AGRL    1 000010001    1    0  271.80640E+00     0.000
AGRL    1 000010001    1    0  272.80640E+00     0.000
AGRL    1 000010001    1    0  273.80640E+00     0.000
AGRL    1 000010001    1    0  274.80640E+00     0.000
AGRL    1 000010001    1    0  275.80640E+00     0.000
AGRL    1 000010001    1    0  276.80640E+00     0.000
AGRL    1 000010001    1    0  277.80640E+00     0.000
AGRL    1 000010001    1    0  278.80640E+00     0.000
AGRL    1 000010001    1    0  279.80640E+00     0.000
AGRL    1 000010001    1    0  280.80640E+00    10.400
AGRL    1 000010001    1    0  281.80640E+00     0.000
AGRL    1 000010001    1    0  282.80640E+00     0.000
AGRL    1 000010001    1    0  283.80640E+00     0.000
AGRL    1 000010001    1    0  284.80640E+00     0.000
AGRL    1 000010001    1    0  285.80640E+00     0.000
AGRL    1 000010001    1    0  286.80640E+00     0.000
AGRL    1 000010001    1    0  287.80640E+00     0.000
AGRL    1 000010001    1    0  288.80640E+00     0.000
AGRL    1 000010001    1    0  289.80640E+00     0.000
AGRL    1 000010001    1    0  290.80640E+00     0.000
AGRL    1 000010001    1    0  291.80640E+00     4.100
AGRL    1 000010001    1    0  292.80640E+00     0.000
AGRL    1 000010001    1    0  293.80640E+00     0.000
AGRL    1 000010001    1    0  294.80640E+00     0.000
AGRL    1 000010001    1    0  295.80640E+00     0.000
AGRL    1 000010001    1    0  296.80640E+00     0.000
AGRL    1 000010001    1    0  297.80640E+00     0.000
AGRL    1 000010001    1    0  298.80640E+00     0.000
AGRL    1 000010001    1    0  299.80640E+00     0.000
AGRL    1 000010001    1    0  300.80640E+00     0.000
AGRL    1 000010001    1    0  301.80640E+00     0.000
AGRL    1 000010001    1    0  302.80640E+00     0.000
AGRL    1 000010001    1    0  303.80640E+00     9.100
AGRL    1 000010001    1    0  304.80640E+00     2.000
AGRL    1 000010001    1    0  305.80640E+00     0.000
AGRL    1 000010001    1    0  306.80640E+00     0.000
AGRL    1 000010001    1    0  307.80640E+00     0.000
AGRL    1 000010001    1    0  308.80640E+00     0.000
AGRL    1 000010001    1    0  309.80640E+00     0.000
AGRL    1 000010001    1    0  310.80640E+00     0.000
AGRL    1 000010001    1    0  311.80640E+00     0.000
AGRL    1 000010001    1    0  312.80640E+00     0.000
AGRL    1 000010001    1    0  313.80640E+00     0.000
AGRL    1 000010001    1    0  314.80640E+00     0.000
AGRL    1 000010001    1    0  315.80640E+00     0.000
AGRL    1 000010001    1    0  316.80640E+00     0.000
AGRL    1 000010001    1    0  317.80640E+00     0.000
AGRL    1 000010001    1    0  318.80640E+00     0.000
AGRL    1 000010001    1    0  319.80640E+00     0.000
AGRL    1 000010001    1    0  320.80640E+00     0.000
AGRL    1 000010001    1    0  321.80640E+00     0.000
AGRL    1 000010001    1    0  322.80640E+00     1.300
AGRL    1 000010001    1    0  323.80640E+00     0.000
AGRL    1 000010001    1    0  324.80640E+00     0.000
AGRL    1 000010001    1    0  325.80640E+00     0.000
AGRL    1 000010001    1    0  326.80640E+00     7.100
AGRL    1 000010001    1    0  327.80640E+00     0.000
AGRL    1 000010001    1    0  328.80640E+00     0.000
AGRL    1 000010001    1    0  329.80640E+00     0.000
AGRL    1 000010001    1    0  330.80640E+00     0.000
AGRL    1 000010001    1    0  331.80640E+00     0.000
AGRL    1 000010001    1    0  332.80640E+00     0.000
AGRL    1 000010001    1    0  333.80640E+00     0.000
AGRL    1 000010001    1    0  334.80640E+00     0.000
AGRL    1 000010001    1    0  335.80640E+00     1.300
AGRL    1 000010001    1    0  336.80640E+00     0.500
AGRL    1 000010001    1    0  337.80640E+00     0.000
AGRL    1 000010001    1    0  338.80640E+00     0.000
AGRL    1 000010001    1    0  339.80640E+00     0.000
AGRL    1 000010001    1    0  340.80640E+00     0.000
AGRL    1 000010001    1    0  341.80640E+00     0.000
AGRL    1 000010001    1    0  342.80640E+00     1.800
AGRL    1 000010001    1    0  343.80640E+00     0.000
AGRL    1 000010001    1    0  344.80640E+00     0.000
AGRL    1 000010001    1    0  345.80640E+00     0.000
AGRL    1 000010001    1    0  346.80640E+00     0.000
AGRL    1 000010001    1    0  347.80640E+00     0.000
AGRL    1 000010001    1    0  348.80640E+00     0.000
AGRL    1 000010001    1    0  349.80640E+00     0.000
AGRL    1 000010001    1    0  350.80640E+00     0.000
AGRL    1 000010001    1    0  351.80640E+00     0.000
AGRL    1 000010001    1    0  352.80640E+00     0.000
AGRL    1 000010001    1    0  353.80640E+00     0.000
AGRL    1 000010001    1    0  354.80640E+00     0.000
AGRL    1 000010001    1    0  355.80640E+00     0.000
AGRL    1 000010001    1    0  356.80640E+00     0.000
AGRL    1 000010001    1    0  357.80640E+00     0.000
AGRL    1 000010001    1    0  358.80640E+00     0.000
AGRL    1 000010001    1    0  359.80640E+00     0.000
AGRL    1 000010001    1    0  360.80640E+00     0.000
AGRL    1 000010001    1    0  361.80640E+00     0.000
AGRL    1 000010001    1    0  362.80640E+00     0.000
AGRL    1 000010001    1    0  363.80640E+00     0.000
AGRL    1 000010001    1    0  364.80640E+00     4.100
AGRL    1 000010001    1    0  365.80640E+00     1.800
