1
    SWAT Dec 23 2016    VER 2016/Rev 664                                                                 0/ 0/   0      0: 0: 0

    General Input/Output section (file.cio):                                        
    4/9/2015 12:00:00 AM ARCGIS-SWAT interface AV                                   
                                                                                    
         Number of years in run:   26
         Area of watershed:      469.120 km2
         Random number generator cycles: 0, use default numbers

         Initial random number seed: wet/dry day prob        748932582
         Initial random number seed: radiation              1948832765
         Initial random number seed: precipitation           857034417
         Initial random number seed: 0.5 hr rainfall          67377721
         Initial random number seed: wind speed              366304404
         Initial random number seed: irrigation             1094585182
         Initial random number seed: relative humidity      1767585417
         Initial random number seed: max temperature         608439319
         Initial random number seed: min temperature         592757081

         Precipitation data used in run:
          Multiple gages read for watershed
             Daily rainfall data used

         Temperature data used in run:
          Multiple gages read for watershed

         PET method used: Penman-Monteith

         Rainfall/Runoff/Routing Option:
          Daily rainfall data
          Runoff estimated with curve number method
          Daily stream routing
           Variable Storage routing method
           Channel dimensions remain constant
           Subbasin algae/CBOD loadings not modeled
           In-stream nutrient transformations modeled using QUAL2E equations

         Subbasin Input Summary:
          Sub Latitude  Elev(m) #HRUs Ponds Elevbnds Wetlnd
            1    31.62   334.52    38                   
            2    31.62   325.74    28                   
            3    31.62   217.27    32                   
            4    31.62   280.31    24                   
            5    31.62   288.69    16                   
            6    31.62   258.79    19                   
            7    31.62   220.16    32                   
            8    31.62   298.89    20                   
            9    31.62   235.14    16                   
           10    31.62   254.88    23                   
           11    31.62   285.24    37                   
           12    31.62   233.53    15                   
           13    31.62   255.35    16                   
           14    31.62   256.09    14                   
           15    31.62   293.98    31                   
           16    31.62   316.46    23                   
           17    31.62   209.56    29                   
           18    31.62   284.59    18                   
           19    31.62   213.39    21                   
           20    31.62   236.59    21                   
           21    31.62   308.03    19                   
           22    31.62   226.78    15                   
           23    31.62   319.69    27                   
           24    31.62   249.76    17                   
           25    31.62   272.15    23                   
           26    31.62   330.48    27                   
           27    31.62   301.08    24                   
           28    31.62   292.87    35                   
           29    31.62   260.98    31                   
           30    31.62   268.01    19                   
           31    31.62   261.30    45                   
           32    31.62   253.08    21                   
           33    31.62   224.98    26                   
           34    31.62   191.15    20                   
           35    31.62   262.97    18                   
           36    31.62   248.79    14                   
           37    31.62   316.47    26                   
           38    31.62   203.59    19                   
           39    31.59   284.82    15                   
           40    31.59   253.55    20                   
           41    31.59   307.45    25                   
           42    31.59   206.47    16                   
           43    31.59   210.38    39                   
           44    31.59   273.44    17                   
           45    31.59   246.93    20                   
           46    31.59   284.82    15                   
           47    31.59   276.91    25                   
           48    31.59   201.44    44                   
           49    31.59   264.12    25                   
           50    31.59   228.77    47                   
           51    31.59   296.84    30                   
           52    31.59   270.93    56                   
           53    31.59   261.80    41                   
           54    31.59   218.37    31                   
           55    31.59   288.40    25                   
           56    31.59   235.74    11                   
           57    31.59   242.27    18                   
           58    31.59   169.30    12                   
           59    31.59   276.80    16                   
           60    31.59   225.53    10                   
           61    31.59   234.21    21                   
           62    31.59   272.06    22                   
           63    31.59   240.19    28                   
           64    31.59   203.19    29                   
           65    31.59   228.76    34                   
           66    31.59   191.16    29                   
           67    31.57   192.20    42                   
           68    31.57   175.62    23                   
           69    31.57   169.05     8                   

         HRU Input Summary Table 1:
          Sub   HRU   Area(ha) Slope SlpLgth(m) Ovrlnd_N CondII_CN TimeConc(hr) ESCO EPCO
            1      1      80.64 0.013     121.95    0.140     72.87        1.171 0.72 1.00
            1      2      21.06 0.015     121.95    0.140     72.87        1.091 0.72 1.00
            1      3      21.33 0.008     121.95    0.140     76.38        1.314 0.72 1.00
            1      4       3.06 0.019     121.95    0.140     76.38        1.005 0.72 1.00
            1      5      90.90 0.013     121.95    0.140     76.38        1.177 0.72 1.00
            1      6      12.51 0.058      60.98    0.150     60.58        0.502 0.72 1.00
            1      7     293.31 0.014     121.95    0.150     69.35        1.295 0.72 1.00
            1      8     245.97 0.017     121.95    0.150     69.35        1.209 0.72 1.00
            1      9      15.12 0.071      60.98    0.150     69.35        0.475 0.72 1.00
            1     10      22.14 0.130      24.39    0.150     73.74        0.239 0.72 1.00
            1     11     186.84 0.011     121.95    0.150     73.74        1.332 0.72 1.00
            1     12     222.12 0.025      91.46    0.150     73.74        0.927 0.72 1.00
            1     13     746.46 0.015     121.95    0.150     73.74        1.462 0.72 1.00
            1     14       0.81 0.026      91.46    0.100     61.45        0.628 0.72 1.00
            1     15      17.10 0.085      60.98    0.100     61.45        0.357 0.72 1.00
            1     16      24.48 0.141      24.39    0.100     67.60        0.188 0.72 1.00
            1     17       3.33 0.015     121.95    0.100     67.60        0.882 0.72 1.00
            1     18      93.87 0.055      60.98    0.100     67.60        0.448 0.72 1.00
            1     19       2.43 0.027      91.46    0.100     67.60        0.622 0.72 1.00
            1     20       0.99 0.026      91.46    0.100     57.94        0.628 0.72 1.00
            1     21       3.69 0.110      60.98    0.100     67.60        0.322 0.72 1.00
            1     22       2.25 0.189      18.29    0.100     72.87        0.134 0.72 1.00
            1     23       1.35 0.025      91.46    0.100     72.87        0.636 0.72 1.00
            1     24       9.54 0.047      91.46    0.100     72.87        0.533 0.72 1.00
            1     25       1.17 0.023      91.46    0.100     72.87        0.652 0.72 1.00
            1     26       0.54 0.017     121.95    0.050     57.94        0.559 0.72 1.00
            1     27      18.36 0.085      60.98    0.050     67.60        0.241 0.72 1.00
            1     28       2.43 0.157      24.39    0.050     72.87        0.111 0.72 1.00
            1     29       1.35 0.016     121.95    0.050     72.87        0.570 0.72 1.00
            1     30       0.63 0.079      60.98    0.050     72.87        0.233 0.72 1.00
            1     31       0.09 0.021      91.46    0.010     80.77        0.168 0.72 1.00
            1     32      21.15 0.011     121.95    0.100     67.04        0.980 0.72 1.00
            1     33      20.61 0.014     121.95    0.100     67.04        0.912 0.72 1.00
            1     34       1.89 0.039      91.46    0.100     67.04        0.557 0.72 1.00
            1     35       0.72 0.168      18.29    0.100     72.51        0.137 0.72 1.00
            1     36       7.29 0.011     121.95    0.100     72.51        0.971 0.72 1.00
            1     37      18.00 0.028      91.46    0.100     72.51        0.626 0.72 1.00
            1     38      28.08 0.014     121.95    0.100     72.51        0.917 0.72 1.00
            2     39      16.11 0.016     121.95    0.140     72.87        1.065 0.72 1.00
            2     40      14.22 0.014     121.95    0.140     72.87        1.107 0.72 1.00
            2     41      10.08 0.011     121.95    0.140     76.38        1.187 0.72 1.00
            2     42       0.27 0.016     121.95    0.140     76.38        1.055 0.72 1.00
            2     43       5.76 0.056      60.98    0.150     60.58        0.502 0.72 1.00
            2     44     247.68 0.018     121.95    0.150     69.35        1.174 0.72 1.00
            2     45     208.71 0.020      91.46    0.150     69.35        0.962 0.72 1.00
            2     46       6.66 0.118      60.98    0.150     73.74        0.403 0.72 1.00
            2     47     133.29 0.017     121.95    0.150     73.74        1.145 0.72 1.00
            2     48      84.87 0.032      91.46    0.150     73.74        0.796 0.72 1.00
            2     49     102.96 0.021      91.46    0.150     73.74        0.905 0.72 1.00
            2     50       2.25 0.077      60.98    0.100     48.28        0.357 0.72 1.00
            2     51       2.88 0.036      91.46    0.100     61.45        0.571 0.72 1.00
            2     52      18.63 0.163      18.29    0.100     67.60        0.149 0.72 1.00
            2     53       0.99 0.059      60.98    0.100     67.60        0.385 0.72 1.00
            2     54      17.55 0.120      60.98    0.100     67.60        0.322 0.72 1.00
            2     55       2.70 0.096      60.98    0.100     67.60        0.334 0.72 1.00
            2     56       1.44 0.075      60.98    0.100     57.94        0.359 0.72 1.00
            2     57       8.82 0.121      24.39    0.100     72.87        0.185 0.72 1.00
            2     58       2.97 0.112      60.98    0.100     72.87        0.320 0.72 1.00
            2     59       0.09 0.009     121.95    0.100     72.87        1.025 0.72 1.00
            2     60       6.39 0.070      60.98    0.050     57.94        0.246 0.72 1.00
            2     61       7.56 0.132      24.39    0.050     72.87        0.120 0.72 1.00
            2     62       1.26 0.169      18.29    0.050     72.87        0.091 0.72 1.00
            2     63       7.47 0.017     121.95    0.100     67.04        0.852 0.72 1.00
            2     64      11.07 0.016     121.95    0.100     67.04        0.870 0.72 1.00
            2     65       2.70 0.011     121.95    0.100     72.51        0.967 0.72 1.00
            2     66       0.54 0.034      91.46    0.100     72.51        0.579 0.72 1.00
            3     67       1.35 0.013     121.95    0.140     72.87        1.124 0.72 1.00
            3     68     205.11 0.019     121.95    0.150     69.35        1.108 0.72 1.00
            3     69      87.75 0.020      91.46    0.150     69.35        0.896 0.72 1.00
            3     70       1.53 0.034      91.46    0.150     69.35        0.739 0.72 1.00
            3     71     136.35 0.028      91.46    0.150     73.74        0.827 0.72 1.00
            3     72      72.00 0.025      91.46    0.150     73.74        0.835 0.72 1.00
            3     73       5.76 0.024      91.46    0.150     73.74        0.822 0.72 1.00
            3     74      10.08 0.016     121.95    0.150     73.74        1.104 0.72 1.00
            3     75       0.54 0.018     121.95    0.100     61.45        0.833 0.72 1.00
            3     76       8.64 0.062      60.98    0.100     61.45        0.383 0.72 1.00
            3     77       5.31 0.042      91.46    0.100     67.60        0.546 0.72 1.00
            3     78       0.81 0.085      60.98    0.100     67.60        0.345 0.72 1.00
            3     79       6.66 0.052      60.98    0.100     67.60        0.403 0.72 1.00
            3     80       0.27 0.028      91.46    0.100     67.60        0.613 0.72 1.00
            3     81       0.09 0.031      91.46    0.100     67.60        0.595 0.72 1.00
            3     82       1.17 0.060      60.98    0.100     67.60        0.383 0.72 1.00
            3     83       4.32 0.046      91.46    0.100     72.87        0.531 0.72 1.00
            3     84       2.07 0.035      91.46    0.100     72.87        0.575 0.72 1.00
            3     85       3.96 0.029      91.46    0.100     72.87        0.609 0.72 1.00
            3     86       0.27 0.033      91.46    0.100     72.87        0.584 0.72 1.00
            3     87       0.09 0.002     121.95    0.050     67.60        1.061 0.72 1.00
            3     88       3.87 0.062      60.98    0.050     67.60        0.252 0.72 1.00
            3     89       0.81 0.038      91.46    0.050     72.87        0.370 0.72 1.00
            3     90       0.81 0.039      91.46    0.050     72.87        0.367 0.72 1.00
            3     91       3.78 0.030      91.46    0.050     72.87        0.398 0.72 1.00
            3     92       1.71 0.028      91.46    0.010     80.77        0.155 0.72 1.00
            3     93       5.94 0.012     121.95    0.100     67.04        0.943 0.72 1.00
            3     94      12.06 0.017     121.95    0.100     67.04        0.852 0.72 1.00
            3     95       0.72 0.011     121.95    0.100     72.51        0.965 0.72 1.00
            3     96       2.07 0.026      91.46    0.100     72.51        0.628 0.72 1.00
            3     97       1.35 0.024      91.46    0.100     72.51        0.643 0.72 1.00
            3     98       4.77 0.011     121.95    0.100     72.51        0.967 0.72 1.00
            4     99      49.23 0.019     121.95    0.140     72.87        1.031 0.72 1.00
            4    100      52.02 0.024      91.46    0.140     72.87        0.817 0.72 1.00
            4    101       6.48 0.018     121.95    0.140     76.38        1.023 0.72 1.00
            4    102      11.61 0.023      91.46    0.140     76.38        0.804 0.72 1.00
            4    103       0.27 0.083      60.98    0.150     60.58        0.443 0.72 1.00
            4    104     156.42 0.023      91.46    0.150     69.35        0.910 0.72 1.00
            4    105     194.40 0.024      91.46    0.150     69.35        0.917 0.72 1.00
            4    106      82.80 0.019     121.95    0.150     73.74        1.090 0.72 1.00
            4    107      15.21 0.029      91.46    0.150     73.74        0.784 0.72 1.00
            4    108      30.06 0.024      91.46    0.150     73.74        0.838 0.72 1.00
            4    109       0.18 0.105      60.98    0.100     48.28        0.324 0.72 1.00
            4    110       5.13 0.041      91.46    0.100     67.60        0.551 0.72 1.00
            4    111       0.18 0.056      60.98    0.100     67.60        0.391 0.72 1.00
            4    112       0.72 0.037      91.46    0.100     57.94        0.565 0.72 1.00
            4    113       0.72 0.026      91.46    0.100     72.87        0.628 0.72 1.00
            4    114       2.52 0.034      91.46    0.100     72.87        0.581 0.72 1.00
            4    115       0.72 0.042      91.46    0.050     57.94        0.359 0.72 1.00
            4    116       0.27 0.029      91.46    0.050     72.87        0.401 0.72 1.00
            4    117       1.71 0.042      91.46    0.050     72.87        0.360 0.72 1.00
            4    118       7.20 0.013     121.95    0.100     67.04        0.923 0.72 1.00
            4    119      12.87 0.020      91.46    0.100     67.04        0.687 0.72 1.00
            4    120       5.31 0.016     121.95    0.100     72.51        0.866 0.72 1.00
            4    121       0.27 0.088      60.98    0.100     72.51        0.341 0.72 1.00
            4    122       0.72 0.045      91.46    0.100     72.51        0.533 0.72 1.00
            5    123      96.75 0.019     121.95    0.140     72.87        1.066 0.72 1.00
            5    124     166.59 0.020      91.46    0.140     72.87        0.933 0.72 1.00
            5    125      41.22 0.020     121.95    0.140     76.38        1.017 0.72 1.00
            5    126       3.24 0.025      91.46    0.140     76.38        0.780 0.72 1.00
            5    127     164.43 0.021      91.46    0.150     69.35        0.954 0.72 1.00
            5    128     269.55 0.021      91.46    0.150     69.35        1.009 0.72 1.00
            5    129     170.64 0.022      91.46    0.150     73.74        0.946 0.72 1.00
            5    130      16.83 0.020     121.95    0.150     73.74        1.042 0.72 1.00
            5    131       0.72 0.019     121.95    0.100     61.45        0.820 0.72 1.00
            5    132       0.72 0.018     121.95    0.100     61.45        0.833 0.72 1.00
            5    133       0.09 0.002     121.95    0.100     67.60        1.609 0.72 1.00
            5    134       0.45 0.013     121.95    0.100     67.60        0.918 0.72 1.00
            5    135       1.08 0.014     121.95    0.100     67.04        0.899 0.72 1.00
            5    136       9.36 0.021      91.46    0.100     67.04        0.677 0.72 1.00
            5    137       5.13 0.027      91.46    0.100     72.51        0.625 0.72 1.00
            5    138       2.70 0.022      91.46    0.100     72.51        0.662 0.72 1.00
            6    139       3.24 0.012     121.95    0.140     72.87        1.153 0.72 1.00
            6    140       5.04 0.017     121.95    0.140     72.87        1.041 0.72 1.00
            6    141       3.87 0.013     121.95    0.140     76.38        1.127 0.72 1.00
            6    142     121.95 0.015     121.95    0.140     76.38        1.154 0.72 1.00
            6    143     254.16 0.009     121.95    0.140     76.38        1.402 0.72 1.00
            6    144     163.08 0.012     121.95    0.140     76.38        1.251 0.72 1.00
            6    145       0.72 0.005     121.95    0.150     69.35        1.560 0.72 1.00
            6    146       0.90 0.012     121.95    0.150     69.35        1.200 0.72 1.00
            6    147       4.95 0.009     121.95    0.150     69.35        1.311 0.72 1.00
            6    148      94.77 0.022      91.46    0.150     73.74        0.904 0.72 1.00
            6    149     105.75 0.019     121.95    0.150     73.74        1.113 0.72 1.00
            6    150      35.46 0.007     121.95    0.150     73.74        1.435 0.72 1.00
            6    151      38.61 0.013     121.95    0.150     73.74        1.199 0.72 1.00
            6    152       0.18 0.011     121.95    0.010     80.77        0.243 0.72 1.00
            6    153       0.27 0.006     121.95    0.100     67.04        1.157 0.72 1.00
            6    154       0.72 0.036      91.46    0.100     72.51        0.570 0.72 1.00
            6    155       3.42 0.023      91.46    0.100     72.51        0.654 0.72 1.00
            6    156      14.13 0.007     121.95    0.100     72.51        1.117 0.72 1.00
            6    157       5.67 0.010     121.95    0.100     72.51        0.998 0.72 1.00
            7    158       5.58 0.013     121.95    0.140     72.87        1.129 0.72 1.00
            7    159      65.97 0.016     121.95    0.140     76.38        1.108 0.72 1.00
            7    160      46.17 0.016     121.95    0.140     76.38        1.094 0.72 1.00
            7    161     571.68 0.010     121.95    0.140     76.38        1.564 0.72 1.00
            7    162     392.58 0.012     121.95    0.140     76.38        1.401 0.72 1.00
            7    163       6.66 0.038      91.46    0.150     60.58        0.721 0.72 1.00
            7    164      49.86 0.044      91.46    0.150     60.58        0.724 0.72 1.00
            7    165      43.74 0.035      91.46    0.150     69.35        0.768 0.72 1.00
            7    166      18.81 0.026      91.46    0.150     69.35        0.817 0.72 1.00
            7    167      42.57 0.042      91.46    0.150     69.35        0.729 0.72 1.00
            7    168     823.50 0.037      91.46    0.150     73.74        1.200 0.72 1.00
            7    169       8.55 0.023      91.46    0.150     73.74        0.839 0.72 1.00
            7    170     212.76 0.034      91.46    0.150     73.74        0.885 0.72 1.00
            7    171     147.69 0.014     121.95    0.150     73.74        1.251 0.72 1.00
            7    172     430.47 0.018     121.95    0.150     73.74        1.334 0.72 1.00
            7    173       0.09 0.083      60.98    0.100     48.28        0.347 0.72 1.00
            7    174       9.72 0.106      60.98    0.100     67.60        0.332 0.72 1.00
            7    175       4.23 0.088      60.98    0.100     57.94        0.346 0.72 1.00
            7    176       3.69 0.112      60.98    0.100     72.87        0.321 0.72 1.00
            7    177       1.17 0.016     121.95    0.100     72.87        0.864 0.72 1.00
            7    178       6.66 0.053      60.98    0.050     57.94        0.269 0.72 1.00
            7    179       0.09 0.025      91.46    0.050     67.60        0.419 0.72 1.00
            7    180       1.89 0.080      60.98    0.050     72.87        0.234 0.72 1.00
            7    181       0.09 0.013     121.95    0.050     72.87        0.605 0.72 1.00
            7    182       7.56 0.016     121.95    0.050     72.87        0.577 0.72 1.00
            7    183       4.23 0.008     121.95    0.050     72.87        0.705 0.72 1.00
            7    184       1.44 0.023      91.46    0.010     80.77        0.165 0.72 1.00
            7    185       0.09 0.025      91.46    0.100     56.88        0.635 0.72 1.00
            7    186      14.31 0.027      91.46    0.100     72.51        0.634 0.72 1.00
            7    187       8.46 0.040      91.46    0.100     72.51        0.560 0.72 1.00
            7    188      32.94 0.010     121.95    0.100     72.51        1.021 0.72 1.00
            7    189      31.68 0.012     121.95    0.100     72.51        0.968 0.72 1.00
            8    190      12.78 0.067      60.98    0.150     60.58        0.481 0.72 1.00
            8    191       0.27 0.168      18.29    0.150     60.58        0.174 0.72 1.00
            8    192     105.93 0.023      91.46    0.150     69.35        0.886 0.72 1.00
            8    193      13.23 0.017     121.95    0.150     69.35        1.089 0.72 1.00
            8    194      47.43 0.129      24.39    0.150     73.74        0.252 0.72 1.00
            8    195     159.57 0.045      91.46    0.150     73.74        0.759 0.72 1.00
            8    196       2.52 0.011     121.95    0.150     73.74        1.232 0.72 1.00
            8    197       2.07 0.053      60.98    0.100     48.28        0.399 0.72 1.00
            8    198       0.27 0.064      60.98    0.100     61.45        0.376 0.72 1.00
            8    199      24.84 0.140      24.39    0.100     67.60        0.187 0.72 1.00
            8    200      38.61 0.064      60.98    0.100     67.60        0.399 0.72 1.00
            8    201       2.43 0.098      60.98    0.100     57.94        0.332 0.72 1.00
            8    202      18.27 0.123      24.39    0.100     72.87        0.190 0.72 1.00
            8    203      30.60 0.063      60.98    0.100     72.87        0.396 0.72 1.00
            8    204       0.09 0.024      91.46    0.100     72.87        0.642 0.72 1.00
            8    205       3.42 0.045      91.46    0.050     57.94        0.354 0.72 1.00
            8    206       3.42 0.120      60.98    0.050     72.87        0.208 0.72 1.00
            8    207      10.71 0.022      91.46    0.100     67.04        0.667 0.72 1.00
            8    208       0.54 0.014     121.95    0.100     67.04        0.898 0.72 1.00
            8    209      10.26 0.027      91.46    0.100     72.51        0.627 0.72 1.00
            9    210     115.92 0.031      91.46    0.150     69.35        0.824 0.72 1.00
            9    211      63.27 0.028      91.46    0.150     69.35        0.820 0.72 1.00
            9    212      34.47 0.044      91.46    0.150     69.35        0.705 0.72 1.00
            9    213     227.88 0.033      91.46    0.150     73.74        0.862 0.72 1.00
            9    214      33.84 0.030      91.46    0.150     73.74        0.788 0.72 1.00
            9    215       0.63 0.069      60.98    0.100     61.45        0.368 0.72 1.00
            9    216      21.15 0.069      60.98    0.100     67.60        0.382 0.72 1.00
            9    217       0.18 0.011     121.95    0.100     67.60        0.965 0.72 1.00
            9    218       0.09 0.010     121.95    0.100     67.60        0.993 0.72 1.00
            9    219       0.36 0.071      60.98    0.100     67.60        0.364 0.72 1.00
            9    220      20.25 0.052      60.98    0.100     72.87        0.413 0.72 1.00
            9    221       0.63 0.039      91.46    0.100     72.87        0.556 0.72 1.00
            9    222       0.63 0.057      60.98    0.050     57.94        0.257 0.72 1.00
            9    223      10.80 0.074      60.98    0.050     72.87        0.245 0.72 1.00
            9    224       4.32 0.029      91.46    0.050     72.87        0.404 0.72 1.00
            9    225       0.18 0.080      60.98    0.100     72.51        0.351 0.72 1.00
           10    226      36.36 0.018     121.95    0.140     72.87        1.051 0.72 1.00
           10    227     103.23 0.019     121.95    0.140     72.87        1.082 0.72 1.00
           10    228       1.44 0.010     121.95    0.140     76.38        1.217 0.72 1.00
           10    229       1.35 0.136      24.39    0.150     60.58        0.222 0.72 1.00
           10    230     289.26 0.023      91.46    0.150     69.35        1.028 0.72 1.00
           10    231     266.94 0.022      91.46    0.150     69.35        1.026 0.72 1.00
           10    232       3.87 0.114      60.98    0.150     69.35        0.407 0.72 1.00
           10    233       3.78 0.008     121.95    0.150     73.74        1.358 0.72 1.00
           10    234       0.54 0.162      18.29    0.150     73.74        0.177 0.72 1.00
           10    235      68.58 0.022      91.46    0.150     73.74        0.897 0.72 1.00
           10    236      38.79 0.039      91.46    0.150     73.74        0.742 0.72 1.00
           10    237      21.69 0.022      91.46    0.150     73.74        0.861 0.72 1.00
           10    238       0.09 0.012     121.95    0.100     61.45        0.940 0.72 1.00
           10    239       1.17 0.028      91.46    0.100     67.60        0.615 0.72 1.00
           10    240       4.41 0.022      91.46    0.100     67.60        0.664 0.72 1.00
           10    241       1.62 0.155      24.39    0.100     67.60        0.168 0.72 1.00
           10    242      13.86 0.115      60.98    0.100     72.87        0.329 0.72 1.00
           10    243       0.18 0.023      91.46    0.050     67.60        0.430 0.72 1.00
           10    244       0.90 0.154      24.39    0.050     67.60        0.111 0.72 1.00
           10    245       1.53 0.179      18.29    0.050     72.87        0.090 0.72 1.00
           10    246       3.42 0.013     121.95    0.100     67.04        0.922 0.72 1.00
           10    247       4.77 0.019     121.95    0.100     67.04        0.824 0.72 1.00
           10    248       0.18 0.002     121.95    0.100     72.51        1.609 0.72 1.00
           11    249     152.19 0.017     121.95    0.140     72.87        1.127 0.72 1.00
           11    250     355.32 0.018     121.95    0.140     72.87        1.209 0.72 1.00
           11    251       1.44 0.008     121.95    0.140     72.87        1.300 0.72 1.00
           11    252       1.44 0.015     121.95    0.140     76.38        1.077 0.72 1.00
           11    253     267.30 0.012     121.95    0.140     76.38        1.299 0.72 1.00
           11    254     928.35 0.019     121.95    0.150     69.35        1.486 0.72 1.00
           11    255     791.37 0.019     121.95    0.150     69.35        1.428 0.72 1.00
           11    256      54.63 0.025      91.46    0.150     69.35        0.846 0.72 1.00
           11    257      59.04 0.022      91.46    0.150     73.74        0.881 0.72 1.00
           11    258      12.69 0.182      18.29    0.150     73.74        0.180 0.72 1.00
           11    259     625.95 0.016     121.95    0.150     73.74        1.412 0.72 1.00
           11    260     100.44 0.032      91.46    0.150     73.74        0.815 0.72 1.00
           11    261      67.86 0.019     121.95    0.150     73.74        1.089 0.72 1.00
           11    262       2.61 0.028      91.46    0.100     61.45        0.616 0.72 1.00
           11    263       0.18 0.014     121.95    0.100     61.45        0.898 0.72 1.00
           11    264      21.33 0.118      60.98    0.100     61.45        0.329 0.72 1.00
           11    265      19.35 0.161      18.29    0.100     67.60        0.153 0.72 1.00
           11    266       0.09 0.016     121.95    0.100     67.60        0.862 0.72 1.00
           11    267      52.20 0.029      91.46    0.100     67.60        0.642 0.72 1.00
           11    268       3.15 0.014     121.95    0.100     67.60        0.900 0.72 1.00
           11    269      11.61 0.020      91.46    0.100     67.60        0.688 0.72 1.00
           11    270       0.18 0.009     121.95    0.100     67.60        1.025 0.72 1.00
           11    271       9.90 0.102      60.98    0.100     67.60        0.335 0.72 1.00
           11    272       4.05 0.163      18.29    0.100     72.87        0.141 0.72 1.00
           11    273       3.78 0.017     121.95    0.100     72.87        0.850 0.72 1.00
           11    274      37.44 0.027      91.46    0.100     72.87        0.647 0.72 1.00
           11    275       7.38 0.019     121.95    0.100     72.87        0.825 0.72 1.00
           11    276       2.79 0.018     121.95    0.050     67.60        0.552 0.72 1.00
           11    277       5.67 0.088      60.98    0.050     67.60        0.230 0.72 1.00
           11    278       3.06 0.156      24.39    0.050     72.87        0.112 0.72 1.00
           11    279       0.09 0.016     121.95    0.050     72.87        0.569 0.72 1.00
           11    280       7.56 0.025      91.46    0.050     72.87        0.425 0.72 1.00
           11    281       4.50 0.019     121.95    0.050     72.87        0.544 0.72 1.00
           11    282       1.08 0.011     121.95    0.010     80.77        0.244 0.72 1.00
           11    283      24.30 0.018     121.95    0.100     67.04        0.850 0.72 1.00
           11    284      65.52 0.019     121.95    0.100     67.04        0.862 0.72 1.00
           11    285      20.79 0.013     121.95    0.100     72.51        0.933 0.72 1.00
           12    286      15.30 0.014     121.95    0.140     72.87        1.103 0.72 1.00
           12    287       0.54 0.016     121.95    0.140     72.87        1.055 0.72 1.00
           12    288       3.15 0.017     121.95    0.140     76.38        1.037 0.72 1.00
           12    289      26.82 0.015     121.95    0.140     76.38        1.084 0.72 1.00
           12    290      31.59 0.017     121.95    0.140     76.38        1.045 0.72 1.00
           12    291      29.61 0.013     121.95    0.140     76.38        1.132 0.72 1.00
           12    292      36.00 0.020     121.95    0.150     69.35        1.039 0.72 1.00
           12    293      19.26 0.024      91.46    0.150     69.35        0.825 0.72 1.00
           12    294      51.12 0.022      91.46    0.150     73.74        0.855 0.72 1.00
           12    295      69.57 0.021      91.46    0.150     73.74        0.871 0.72 1.00
           12    296      55.08 0.021      91.46    0.150     73.74        0.868 0.72 1.00
           12    297      50.67 0.019     121.95    0.150     73.74        1.058 0.72 1.00
           12    298       0.09 0.019     121.95    0.100     67.04        0.819 0.72 1.00
           12    299       2.07 0.012     121.95    0.100     72.51        0.941 0.72 1.00
           12    300       0.90 0.005     121.95    0.100     72.51        1.222 0.72 1.00
           13    301       9.18 0.011     121.95    0.140     76.38        1.188 0.72 1.00
           13    302      67.14 0.011     121.95    0.140     76.38        1.225 0.72 1.00
           13    303     204.30 0.010     121.95    0.140     76.38        1.333 0.72 1.00
           13    304      57.69 0.014     121.95    0.140     76.38        1.137 0.72 1.00
           13    305       0.36 0.003     121.95    0.150     69.35        1.817 0.72 1.00
           13    306      13.86 0.018     121.95    0.150     73.74        1.073 0.72 1.00
           13    307      50.49 0.015     121.95    0.150     73.74        1.156 0.72 1.00
           13    308      32.76 0.013     121.95    0.150     73.74        1.194 0.72 1.00
           13    309      27.27 0.014     121.95    0.150     73.74        1.165 0.72 1.00
           13    310       1.89 0.038      91.46    0.100     67.60        0.562 0.72 1.00
           13    311       1.17 0.030      91.46    0.100     67.60        0.602 0.72 1.00
           13    312       0.45 0.018     121.95    0.010     80.77        0.210 0.72 1.00
           13    313       2.61 0.016     121.95    0.100     72.51        0.865 0.72 1.00
           13    314       5.22 0.006     121.95    0.100     72.51        1.162 0.72 1.00
           13    315       3.06 0.016     121.95    0.100     72.51        0.865 0.72 1.00
           13    316       2.43 0.013     121.95    0.100     72.51        0.920 0.72 1.00
           14    317       0.18 0.040      91.46    0.140     72.87        0.675 0.72 1.00
           14    318      10.35 0.018     121.95    0.140     76.38        1.027 0.72 1.00
           14    319     121.68 0.010     121.95    0.140     76.38        1.294 0.72 1.00
           14    320     463.50 0.010     121.95    0.140     76.38        1.469 0.72 1.00
           14    321     104.49 0.012     121.95    0.140     76.38        1.219 0.72 1.00
           14    322       1.62 0.016     121.95    0.150     69.35        1.101 0.72 1.00
           14    323      19.53 0.017     121.95    0.150     73.74        1.096 0.72 1.00
           14    324      57.33 0.014     121.95    0.150     73.74        1.185 0.72 1.00
           14    325      95.22 0.010     121.95    0.150     73.74        1.330 0.72 1.00
           14    326      49.86 0.016     121.95    0.150     73.74        1.136 0.72 1.00
           14    327       0.54 0.015     121.95    0.100     72.51        0.880 0.72 1.00
           14    328       5.49 0.010     121.95    0.100     72.51        0.998 0.72 1.00
           14    329      19.71 0.009     121.95    0.100     72.51        1.041 0.72 1.00
           14    330       3.15 0.009     121.95    0.100     72.51        1.028 0.72 1.00
           15    331       0.09 0.012     121.95    0.140     72.87        1.150 0.72 1.00
           15    332       4.05 0.007     121.95    0.140     72.87        1.355 0.72 1.00
           15    333       0.18 0.055      60.98    0.150     60.58        0.501 0.72 1.00
           15    334       2.16 0.086      60.98    0.150     60.58        0.440 0.72 1.00
           15    335      99.45 0.029      91.46    0.150     69.35        0.826 0.72 1.00
           15    336      27.90 0.018     121.95    0.150     69.35        1.079 0.72 1.00
           15    337      18.00 0.118      60.98    0.150     73.74        0.410 0.72 1.00
           15    338       8.46 0.032      91.46    0.150     73.74        0.758 0.72 1.00
           15    339       2.97 0.087      60.98    0.150     73.74        0.439 0.72 1.00
           15    340      88.38 0.048      91.46    0.150     73.74        0.712 0.72 1.00
           15    341      18.72 0.018     121.95    0.150     73.74        1.073 0.72 1.00
           15    342       1.89 0.024      91.46    0.100     61.45        0.644 0.72 1.00
           15    343      22.14 0.171      18.29    0.100     67.60        0.150 0.72 1.00
           15    344       2.34 0.171      18.29    0.100     67.60        0.138 0.72 1.00
           15    345      24.39 0.082      60.98    0.100     67.60        0.364 0.72 1.00
           15    346       2.70 0.038      91.46    0.100     67.60        0.562 0.72 1.00
           15    347       0.45 0.026      91.46    0.100     67.60        0.628 0.72 1.00
           15    348       5.67 0.097      60.98    0.100     72.87        0.335 0.72 1.00
           15    349       0.54 0.050      60.98    0.100     72.87        0.405 0.72 1.00
           15    350       8.64 0.055      60.98    0.100     72.87        0.399 0.72 1.00
           15    351       0.18 0.059      60.98    0.050     57.94        0.254 0.72 1.00
           15    352       0.27 0.070      60.98    0.050     57.94        0.241 0.72 1.00
           15    353       4.95 0.112      60.98    0.050     72.87        0.213 0.72 1.00
           15    354       1.98 0.083      60.98    0.050     72.87        0.231 0.72 1.00
           15    355       0.18 0.227      15.24    0.050     72.87        0.074 0.72 1.00
           15    356       2.16 0.026      91.46    0.100     67.04        0.629 0.72 1.00
           15    357       1.71 0.018     121.95    0.100     67.04        0.834 0.72 1.00
           15    358       1.35 0.101      60.98    0.100     72.51        0.328 0.72 1.00
           15    359       0.54 0.014     121.95    0.100     72.51        0.898 0.72 1.00
           15    360       8.82 0.045      91.46    0.100     72.51        0.538 0.72 1.00
           15    361       2.88 0.021      91.46    0.100     72.51        0.671 0.72 1.00
           16    362      25.83 0.020      91.46    0.140     72.87        0.844 0.72 1.00
           16    363       7.29 0.016     121.95    0.140     72.87        1.059 0.72 1.00
           16    364       6.66 0.013     121.95    0.140     76.38        1.127 0.72 1.00
           16    365       0.09 0.014     121.95    0.140     76.38        1.098 0.72 1.00
           16    366       7.47 0.022      91.46    0.140     76.38        0.811 0.72 1.00
           16    367       6.12 0.046      91.46    0.150     60.58        0.678 0.72 1.00
           16    368     217.08 0.016     121.95    0.150     69.35        1.187 0.72 1.00
           16    369      84.33 0.020     121.95    0.150     69.35        1.067 0.72 1.00
           16    370       2.97 0.138      24.39    0.150     73.74        0.221 0.72 1.00
           16    371     117.72 0.017     121.95    0.150     73.74        1.131 0.72 1.00
           16    372     117.63 0.037      91.46    0.150     73.74        0.771 0.72 1.00
           16    373     170.10 0.020      91.46    0.150     73.74        0.936 0.72 1.00
           16    374       0.99 0.015     121.95    0.100     61.45        0.880 0.72 1.00
           16    375      20.43 0.172      18.29    0.100     67.60        0.147 0.72 1.00
           16    376      28.17 0.078      60.98    0.100     67.60        0.368 0.72 1.00
           16    377       1.26 0.128      24.39    0.100     57.94        0.177 0.72 1.00
           16    378       4.14 0.218      15.24    0.100     72.87        0.116 0.72 1.00
           16    379       2.07 0.118      60.98    0.100     72.87        0.314 0.72 1.00
           16    380      14.13 0.100      60.98    0.050     57.94        0.225 0.72 1.00
           16    381       5.13 0.167      18.29    0.050     72.87        0.093 0.72 1.00
           16    382       0.09 0.188      18.29    0.050     72.87        0.087 0.72 1.00
           16    383       0.09 0.020      91.46    0.100     67.04        0.679 0.72 1.00
           16    384       0.63 0.024      91.46    0.100     67.04        0.643 0.72 1.00
           17    385       5.94 0.019     121.95    0.140     72.87        1.007 0.72 1.00
           17    386      17.82 0.013     121.95    0.140     72.87        1.136 0.72 1.00
           17    387       6.21 0.009     121.95    0.140     76.38        1.259 0.72 1.00
           17    388      19.62 0.009     121.95    0.140     76.38        1.268 0.72 1.00
           17    389      10.89 0.011     121.95    0.140     76.38        1.189 0.72 1.00
           17    390      84.69 0.024      91.46    0.150     69.35        0.871 0.72 1.00
           17    391      80.64 0.020      91.46    0.150     69.35        0.915 0.72 1.00
           17    392      99.54 0.017     121.95    0.150     73.74        1.140 0.72 1.00
           17    393      88.83 0.025      91.46    0.150     73.74        0.864 0.72 1.00
           17    394       4.32 0.006     121.95    0.150     73.74        1.480 0.72 1.00
           17    395       1.26 0.033      91.46    0.150     73.74        0.746 0.72 1.00
           17    396      56.61 0.016     121.95    0.150     73.74        1.136 0.72 1.00
           17    397       0.09 0.082      60.98    0.100     61.45        0.348 0.72 1.00
           17    398       1.17 0.049      91.46    0.100     67.60        0.520 0.72 1.00
           17    399       1.62 0.050      60.98    0.100     67.60        0.406 0.72 1.00
           17    400       0.09 0.024      91.46    0.100     67.60        0.642 0.72 1.00
           17    401       0.90 0.106      60.98    0.100     67.60        0.324 0.72 1.00
           17    402       3.33 0.065      60.98    0.100     72.87        0.377 0.72 1.00
           17    403       0.27 0.012     121.95    0.100     72.87        0.940 0.72 1.00
           17    404       1.89 0.064      60.98    0.100     72.87        0.377 0.72 1.00
           17    405       0.18 0.045      91.46    0.050     67.60        0.351 0.72 1.00
           17    406       2.16 0.062      60.98    0.050     67.60        0.252 0.72 1.00
           17    407       2.16 0.059      60.98    0.050     72.87        0.256 0.72 1.00
           17    408       1.08 0.035      91.46    0.050     72.87        0.380 0.72 1.00
           17    409       0.45 0.086      60.98    0.050     72.87        0.227 0.72 1.00
           17    410       1.17 0.023      91.46    0.010     80.77        0.165 0.72 1.00
           17    411       0.45 0.060      60.98    0.100     67.04        0.383 0.72 1.00
           17    412       1.71 0.029      91.46    0.100     67.04        0.609 0.72 1.00
           17    413       0.36 0.045      91.46    0.100     72.51        0.532 0.72 1.00
           18    414      57.42 0.020     121.95    0.140     72.87        1.018 0.72 1.00
           18    415     106.56 0.022      91.46    0.140     72.87        0.861 0.72 1.00
           18    416      18.90 0.021      91.46    0.140     76.38        0.830 0.72 1.00
           18    417       0.63 0.014     121.95    0.140     76.38        1.099 0.72 1.00
           18    418       2.34 0.025      91.46    0.140     76.38        0.778 0.72 1.00
           18    419       7.02 0.021      91.46    0.150     60.58        0.858 0.72 1.00
           18    420      59.67 0.018     121.95    0.150     69.35        1.094 0.72 1.00
           18    421      98.91 0.021      91.46    0.150     69.35        0.904 0.72 1.00
           18    422      43.74 0.017     121.95    0.150     73.74        1.105 0.72 1.00
           18    423      22.14 0.024      91.46    0.150     73.74        0.833 0.72 1.00
           18    424       7.56 0.018     121.95    0.150     73.74        1.067 0.72 1.00
           18    425       0.09 0.027      91.46    0.100     57.94        0.620 0.72 1.00
           18    426       1.08 0.024      91.46    0.050     57.94        0.425 0.72 1.00
           18    427       2.52 0.024      91.46    0.100     56.88        0.644 0.72 1.00
           18    428       1.44 0.031      91.46    0.100     56.88        0.596 0.72 1.00
           18    429       5.31 0.011     121.95    0.100     67.04        0.969 0.72 1.00
           18    430       8.01 0.021      91.46    0.100     67.04        0.674 0.72 1.00
           18    431       4.41 0.018     121.95    0.100     72.51        0.836 0.72 1.00
           19    432       8.91 0.016     121.95    0.140     76.38        1.063 0.72 1.00
           19    433      52.92 0.011     121.95    0.140     76.38        1.217 0.72 1.00
           19    434     116.01 0.040      91.46    0.150     69.35        0.775 0.72 1.00
           19    435      62.64 0.046      91.46    0.150     69.35        0.716 0.72 1.00
           19    436     364.41 0.041      91.46    0.150     73.74        0.894 0.72 1.00
           19    437     139.86 0.017     121.95    0.150     73.74        1.165 0.72 1.00
           19    438       2.52 0.092      60.98    0.100     61.45        0.339 0.72 1.00
           19    439       0.90 0.042      91.46    0.100     61.45        0.544 0.72 1.00
           19    440       2.79 0.097      60.98    0.100     67.60        0.334 0.72 1.00
           19    441       2.34 0.048      91.46    0.100     67.60        0.524 0.72 1.00
           19    442       1.26 0.064      60.98    0.100     67.60        0.377 0.72 1.00
           19    443       1.17 0.096      60.98    0.100     72.87        0.334 0.72 1.00
           19    444      11.34 0.056      60.98    0.050     67.60        0.267 0.72 1.00
           19    445       0.81 0.023      91.46    0.050     67.60        0.430 0.72 1.00
           19    446       0.63 0.119      60.98    0.050     72.87        0.206 0.72 1.00
           19    447       0.09 0.044      91.46    0.050     72.87        0.353 0.72 1.00
           19    448       4.50 0.039      91.46    0.010     80.77        0.144 0.72 1.00
           19    449       2.25 0.037      91.46    0.100     67.04        0.566 0.72 1.00
           19    450       0.90 0.030      91.46    0.100     67.04        0.602 0.72 1.00
           19    451      11.25 0.035      91.46    0.100     72.51        0.583 0.72 1.00
           19    452      12.51 0.015     121.95    0.100     72.51        0.889 0.72 1.00
           20    453       3.60 0.013     121.95    0.140     72.87        1.128 0.72 1.00
           20    454       4.77 0.016     121.95    0.140     72.87        1.062 0.72 1.00
           20    455      24.84 0.015     121.95    0.140     76.38        1.105 0.72 1.00
           20    456     154.98 0.014     121.95    0.140     76.38        1.242 0.72 1.00
           20    457     381.87 0.011     121.95    0.140     76.38        1.498 0.72 1.00
           20    458      90.36 0.012     121.95    0.140     76.38        1.240 0.72 1.00
           20    459      49.95 0.025      91.46    0.150     69.35        0.863 0.72 1.00
           20    460      62.37 0.024      91.46    0.150     69.35        0.884 0.72 1.00
           20    461     223.47 0.024      91.46    0.150     73.74        1.018 0.72 1.00
           20    462     165.69 0.019     121.95    0.150     73.74        1.197 0.72 1.00
           20    463      70.29 0.016     121.95    0.150     73.74        1.172 0.72 1.00
           20    464      86.85 0.019     121.95    0.150     73.74        1.131 0.72 1.00
           20    465       0.18 0.077      60.98    0.050     72.87        0.235 0.72 1.00
           20    466       0.09 0.062      60.98    0.050     72.87        0.250 0.72 1.00
           20    467       3.69 0.019     121.95    0.010     80.77        0.211 0.72 1.00
           20    468       0.09 0.008     121.95    0.100     67.04        1.062 0.72 1.00
           20    469       0.54 0.019     121.95    0.100     67.04        0.820 0.72 1.00
           20    470       2.97 0.014     121.95    0.100     72.51        0.902 0.72 1.00
           20    471       3.06 0.015     121.95    0.100     72.51        0.884 0.72 1.00
           20    472       9.36 0.013     121.95    0.100     72.51        0.930 0.72 1.00
           20    473       1.53 0.013     121.95    0.100     72.51        0.920 0.72 1.00
           21    474       5.76 0.019     121.95    0.140     72.87        1.003 0.72 1.00
           21    475       2.07 0.010     121.95    0.140     72.87        1.215 0.72 1.00
           21    476       5.04 0.047      91.46    0.150     60.58        0.670 0.72 1.00
           21    477      42.21 0.022      91.46    0.150     69.35        0.846 0.72 1.00
           21    478       3.51 0.006     121.95    0.150     69.35        1.476 0.72 1.00
           21    479      19.17 0.107      60.98    0.150     73.74        0.413 0.72 1.00
           21    480      49.23 0.047      91.46    0.150     73.74        0.675 0.72 1.00
           21    481       0.54 0.035      91.46    0.100     48.28        0.574 0.72 1.00
           21    482       0.27 0.051      60.98    0.100     61.45        0.402 0.72 1.00
           21    483      40.05 0.088      60.98    0.100     67.60        0.346 0.72 1.00
           21    484      31.41 0.057      60.98    0.100     67.60        0.392 0.72 1.00
           21    485       0.18 0.085      60.98    0.100     57.94        0.345 0.72 1.00
           21    486       0.18 0.021      91.46    0.100     67.60        0.669 0.72 1.00
           21    487       6.66 0.136      24.39    0.100     72.87        0.174 0.72 1.00
           21    488       4.77 0.069      60.98    0.100     72.87        0.368 0.72 1.00
           21    489       1.53 0.025      91.46    0.050     57.94        0.419 0.72 1.00
           21    490       0.09 0.009     121.95    0.050     72.87        0.676 0.72 1.00
           21    491       5.67 0.021      91.46    0.100     67.04        0.669 0.72 1.00
           21    492       0.54 0.019     121.95    0.100     72.51        0.819 0.72 1.00
           22    493       1.17 0.019     121.95    0.140     72.87        1.003 0.72 1.00
           22    494      42.84 0.019     121.95    0.150     69.35        1.059 0.72 1.00
           22    495       0.18 0.018     121.95    0.150     69.35        1.061 0.72 1.00
           22    496      38.25 0.036      91.46    0.150     69.35        0.739 0.72 1.00
           22    497     133.92 0.041      91.46    0.150     73.74        0.737 0.72 1.00
           22    498      10.89 0.046      91.46    0.150     73.74        0.678 0.72 1.00
           22    499       5.49 0.080      60.98    0.100     67.60        0.353 0.72 1.00
           22    500       3.60 0.067      60.98    0.100     72.87        0.372 0.72 1.00
           22    501       1.71 0.047      91.46    0.100     72.87        0.526 0.72 1.00
           22    502       0.18 0.025      91.46    0.050     57.94        0.419 0.72 1.00
           22    503       1.35 0.035      91.46    0.050     72.87        0.379 0.72 1.00
           22    504       0.18 0.058      60.98    0.050     72.87        0.255 0.72 1.00
           22    505       2.52 0.042      91.46    0.010     80.77        0.138 0.72 1.00
           22    506       4.95 0.021      91.46    0.100     67.04        0.671 0.72 1.00
           22    507       4.32 0.022      91.46    0.100     72.51        0.661 0.72 1.00
           23    508      93.96 0.017     121.95    0.140     72.87        1.088 0.72 1.00
           23    509     127.08 0.016     121.95    0.140     72.87        1.123 0.72 1.00
           23    510      27.18 0.012     121.95    0.140     76.38        1.168 0.72 1.00
           23    511      58.14 0.010     121.95    0.140     76.38        1.249 0.72 1.00
           23    512     470.52 0.022      91.46    0.150     69.35        1.055 0.72 1.00
           23    513     356.13 0.016     121.95    0.150     69.35        1.267 0.72 1.00
           23    514       8.82 0.099      60.98    0.150     73.74        0.426 0.72 1.00
           23    515     198.63 0.014     121.95    0.150     73.74        1.245 0.72 1.00
           23    516     153.72 0.029      91.46    0.150     73.74        0.854 0.72 1.00
           23    517     117.99 0.013     121.95    0.150     73.74        1.234 0.72 1.00
           23    518       0.99 0.022      91.46    0.100     61.45        0.660 0.72 1.00
           23    519       0.18 0.020     121.95    0.100     61.45        0.806 0.72 1.00
           23    520      34.47 0.127      24.39    0.100     67.60        0.198 0.72 1.00
           23    521       4.23 0.016     121.95    0.100     67.60        0.866 0.72 1.00
           23    522      55.44 0.037      91.46    0.100     67.60        0.597 0.72 1.00
           23    523       0.45 0.007     121.95    0.100     67.60        1.105 0.72 1.00
           23    524       4.95 0.144      24.39    0.100     72.87        0.174 0.72 1.00
           23    525       4.23 0.011     121.95    0.100     72.87        0.968 0.72 1.00
           23    526       6.66 0.053      60.98    0.100     72.87        0.402 0.72 1.00
           23    527       1.80 0.141      24.39    0.050     72.87        0.114 0.72 1.00
           23    528       0.81 0.018     121.95    0.050     72.87        0.550 0.72 1.00
           23    529       1.08 0.014     121.95    0.010     80.77        0.226 0.72 1.00
           23    530      11.25 0.019     121.95    0.100     67.04        0.827 0.72 1.00
           23    531       8.64 0.013     121.95    0.100     67.04        0.924 0.72 1.00
           23    532       8.37 0.012     121.95    0.100     72.51        0.946 0.72 1.00
           23    533       0.09 0.037      91.46    0.100     72.51        0.564 0.72 1.00
           23    534       4.32 0.010     121.95    0.100     72.51        0.996 0.72 1.00
           24    535       3.33 0.024      91.46    0.140     72.87        0.788 0.72 1.00
           24    536       2.07 0.015     121.95    0.140     76.38        1.077 0.72 1.00
           24    537       0.81 0.007     121.95    0.140     76.38        1.352 0.72 1.00
           24    538      11.16 0.017     121.95    0.140     76.38        1.041 0.72 1.00
           24    539      13.59 0.035      91.46    0.150     69.35        0.738 0.72 1.00
           24    540      18.81 0.041      91.46    0.150     69.35        0.706 0.72 1.00
           24    541      33.75 0.044      91.46    0.150     69.35        0.696 0.72 1.00
           24    542     135.00 0.044      91.46    0.150     73.74        0.727 0.72 1.00
           24    543       0.99 0.012     121.95    0.150     73.74        1.199 0.72 1.00
           24    544      26.28 0.015     121.95    0.150     73.74        1.132 0.72 1.00
           24    545       7.38 0.083      60.98    0.100     67.60        0.351 0.72 1.00
           24    546      11.79 0.083      60.98    0.100     72.87        0.352 0.72 1.00
           24    547       0.63 0.078      60.98    0.050     67.60        0.234 0.72 1.00
           24    548       3.96 0.099      60.98    0.050     72.87        0.219 0.72 1.00
           24    549       9.45 0.021      91.46    0.010     80.77        0.172 0.72 1.00
           24    550       0.99 0.009     121.95    0.100     72.51        1.025 0.72 1.00
           24    551       0.27 0.004     121.95    0.100     72.51        1.307 0.72 1.00
           25    552      33.93 0.021      91.46    0.140     72.87        0.844 0.72 1.00
           25    553     102.06 0.018     121.95    0.140     72.87        1.087 0.72 1.00
           25    554       2.07 0.006     121.95    0.140     72.87        1.418 0.72 1.00
           25    555       4.41 0.010     121.95    0.140     76.38        1.219 0.72 1.00
           25    556     189.09 0.014     121.95    0.140     76.38        1.215 0.72 1.00
           25    557     126.54 0.014     121.95    0.140     76.38        1.181 0.72 1.00
           25    558     102.69 0.015     121.95    0.140     76.38        1.144 0.72 1.00
           25    559      52.92 0.026      91.46    0.150     69.35        0.838 0.72 1.00
           25    560     102.69 0.017     121.95    0.150     69.35        1.149 0.72 1.00
           25    561      37.35 0.010     121.95    0.150     69.35        1.294 0.72 1.00
           25    562      17.55 0.018     121.95    0.150     73.74        1.076 0.72 1.00
           25    563     140.85 0.012     121.95    0.150     73.74        1.289 0.72 1.00
           25    564      46.80 0.016     121.95    0.150     73.74        1.134 0.72 1.00
           25    565     308.52 0.017     121.95    0.150     73.74        1.260 0.72 1.00
           25    566       2.16 0.007     121.95    0.100     72.87        1.107 0.72 1.00
           25    567       0.27 0.019     121.95    0.050     72.87        0.541 0.72 1.00
           25    568       1.89 0.016     121.95    0.100     67.04        0.864 0.72 1.00
           25    569       8.64 0.015     121.95    0.100     67.04        0.887 0.72 1.00
           25    570       0.36 0.008     121.95    0.100     67.04        1.062 0.72 1.00
           25    571       1.53 0.008     121.95    0.100     72.51        1.063 0.72 1.00
           25    572      10.89 0.016     121.95    0.100     72.51        0.872 0.72 1.00
           25    573       6.48 0.013     121.95    0.100     72.51        0.924 0.72 1.00
           25    574      20.25 0.014     121.95    0.100     72.51        0.914 0.72 1.00
           26    575       0.09 0.014     121.95    0.140     72.87        1.098 0.72 1.00
           26    576      44.01 0.015     121.95    0.140     72.87        1.093 0.72 1.00
           26    577       1.71 0.124      24.39    0.150     60.58        0.227 0.72 1.00
           26    578     204.84 0.020      91.46    0.150     69.35        0.931 0.72 1.00
           26    579     163.53 0.020      91.46    0.150     69.35        0.919 0.72 1.00
           26    580       6.66 0.093      60.98    0.150     73.74        0.431 0.72 1.00
           26    581      68.85 0.015     121.95    0.150     73.74        1.146 0.72 1.00
           26    582      14.04 0.035      91.46    0.150     73.74        0.738 0.72 1.00
           26    583     186.84 0.015     121.95    0.150     73.74        1.181 0.72 1.00
           26    584       1.62 0.203      15.24    0.100     48.28        0.116 0.72 1.00
           26    585       1.98 0.019     121.95    0.100     61.45        0.820 0.72 1.00
           26    586       1.44 0.032      91.46    0.100     61.45        0.590 0.72 1.00
           26    587      14.04 0.132      24.39    0.100     67.60        0.181 0.72 1.00
           26    588       5.49 0.086      60.98    0.100     67.60        0.346 0.72 1.00
           26    589      13.86 0.019     121.95    0.100     67.60        0.825 0.72 1.00
           26    590       0.90 0.074      60.98    0.100     57.94        0.360 0.72 1.00
           26    591       0.09 0.021      91.46    0.100     67.60        0.669 0.72 1.00
           26    592       0.99 0.147      24.39    0.100     72.87        0.169 0.72 1.00
           26    593       1.44 0.096      60.98    0.100     72.87        0.333 0.72 1.00
           26    594       0.99 0.016     121.95    0.100     72.87        0.863 0.72 1.00
           26    595       6.75 0.107      60.98    0.050     57.94        0.215 0.72 1.00
           26    596       5.31 0.180      18.29    0.050     72.87        0.091 0.72 1.00
           26    597       8.01 0.016     121.95    0.100     67.04        0.866 0.72 1.00
           26    598       6.30 0.022      91.46    0.100     67.04        0.662 0.72 1.00
           26    599       0.45 0.168      18.29    0.100     72.51        0.137 0.72 1.00
           26    600       2.43 0.019     121.95    0.100     72.51        0.820 0.72 1.00
           26    601       9.36 0.015     121.95    0.100     72.51        0.883 0.72 1.00
           27    602       4.86 0.018     121.95    0.140     72.87        1.021 0.72 1.00
           27    603       4.23 0.019     121.95    0.140     72.87        1.004 0.72 1.00
           27    604     211.14 0.021      91.46    0.150     69.35        0.924 0.72 1.00
           27    605      90.36 0.026      91.46    0.150     69.35        0.834 0.72 1.00
           27    606       3.96 0.041      91.46    0.150     69.35        0.700 0.72 1.00
           27    607       3.78 0.173      18.29    0.150     73.74        0.175 0.72 1.00
           27    608      28.98 0.013     121.95    0.150     73.74        1.183 0.72 1.00
           27    609      78.30 0.037      91.46    0.150     73.74        0.750 0.72 1.00
           27    610      27.72 0.038      91.46    0.150     73.74        0.726 0.72 1.00
           27    611       0.45 0.026      91.46    0.100     61.45        0.627 0.72 1.00
           27    612       0.36 0.019     121.95    0.100     61.45        0.819 0.72 1.00
           27    613      11.97 0.172      18.29    0.100     67.60        0.141 0.72 1.00
           27    614      41.22 0.056      60.98    0.100     67.60        0.408 0.72 1.00
           27    615       0.54 0.040      91.46    0.100     67.60        0.551 0.72 1.00
           27    616       1.53 0.045      91.46    0.100     67.60        0.533 0.72 1.00
           27    617       3.33 0.183      18.29    0.100     72.87        0.135 0.72 1.00
           27    618       2.07 0.064      60.98    0.100     72.87        0.376 0.72 1.00
           27    619       5.49 0.040      91.46    0.100     72.87        0.554 0.72 1.00
           27    620       0.72 0.102      60.98    0.050     57.94        0.216 0.72 1.00
           27    621       5.04 0.225      15.24    0.050     72.87        0.077 0.72 1.00
           27    622       0.27 0.254       9.15    0.050     72.87        0.053 0.72 1.00
           27    623       0.63 0.027      91.46    0.100     67.04        0.620 0.72 1.00
           27    624       0.18 0.017     121.95    0.100     67.04        0.847 0.72 1.00
           27    625       1.53 0.039      91.46    0.100     72.51        0.556 0.72 1.00
           28    626       0.18 0.040      91.46    0.140     72.87        0.675 0.72 1.00
           28    627       1.71 0.029      91.46    0.140     76.38        0.745 0.72 1.00
           28    628       0.27 0.009     121.95    0.140     76.38        1.254 0.72 1.00
           28    629      14.04 0.013     121.95    0.140     76.38        1.141 0.72 1.00
           28    630       7.29 0.111      60.98    0.150     60.58        0.416 0.72 1.00
           28    631      73.98 0.017     121.95    0.150     69.35        1.156 0.72 1.00
           28    632      45.36 0.018     121.95    0.150     69.35        1.111 0.72 1.00
           28    633       2.07 0.026      91.46    0.150     69.35        0.803 0.72 1.00
           28    634      19.35 0.188      18.29    0.150     73.74        0.192 0.72 1.00
           28    635      11.07 0.017     121.95    0.150     73.74        1.094 0.72 1.00
           28    636     144.09 0.031      91.46    0.150     73.74        0.896 0.72 1.00
           28    637     152.91 0.020      91.46    0.150     73.74        1.010 0.72 1.00
           28    638       3.78 0.110      60.98    0.100     48.28        0.325 0.72 1.00
           28    639       0.36 0.016     121.95    0.100     61.45        0.863 0.72 1.00
           28    640       1.44 0.083      60.98    0.100     61.45        0.350 0.72 1.00
           28    641      32.85 0.213      15.24    0.100     67.60        0.151 0.72 1.00
           28    642       0.90 0.064      60.98    0.100     67.60        0.377 0.72 1.00
           28    643      63.54 0.054      60.98    0.100     67.60        0.462 0.72 1.00
           28    644       3.51 0.096      60.98    0.100     67.60        0.338 0.72 1.00
           28    645       4.77 0.174      18.29    0.100     57.94        0.142 0.72 1.00
           28    646       0.27 0.015     121.95    0.100     67.60        0.880 0.72 1.00
           28    647       7.83 0.222      15.24    0.100     72.87        0.123 0.72 1.00
           28    648       0.18 0.037      91.46    0.100     72.87        0.565 0.72 1.00
           28    649       2.79 0.060      60.98    0.100     72.87        0.387 0.72 1.00
           28    650       1.62 0.080      60.98    0.100     72.87        0.354 0.72 1.00
           28    651      24.48 0.092      60.98    0.050     57.94        0.251 0.72 1.00
           28    652      14.94 0.182      18.29    0.050     72.87        0.107 0.72 1.00
           28    653       0.45 0.038      91.46    0.050     72.87        0.370 0.72 1.00
           28    654       0.90 0.060      60.98    0.100     56.88        0.384 0.72 1.00
           28    655       2.79 0.015     121.95    0.100     67.04        0.883 0.72 1.00
           28    656       3.60 0.016     121.95    0.100     67.04        0.868 0.72 1.00
           28    657       5.04 0.204      15.24    0.100     72.51        0.123 0.72 1.00
           28    658       0.54 0.023      91.46    0.100     72.51        0.652 0.72 1.00
           28    659      10.53 0.032      91.46    0.100     72.51        0.603 0.72 1.00
           28    660       7.92 0.016     121.95    0.100     72.51        0.873 0.72 1.00
           29    661      16.02 0.012     121.95    0.140     72.87        1.157 0.72 1.00
           29    662       0.27 0.046      91.46    0.140     72.87        0.647 0.72 1.00
           29    663       4.95 0.009     121.95    0.140     76.38        1.256 0.72 1.00
           29    664      47.16 0.018     121.95    0.140     76.38        1.037 0.72 1.00
           29    665      92.61 0.016     121.95    0.140     76.38        1.088 0.72 1.00
           29    666      13.14 0.011     121.95    0.140     76.38        1.186 0.72 1.00
           29    667      54.27 0.030      91.46    0.150     69.35        0.787 0.72 1.00
           29    668       8.01 0.027      91.46    0.150     69.35        0.795 0.72 1.00
           29    669      16.47 0.040      91.46    0.150     69.35        0.710 0.72 1.00
           29    670     132.30 0.039      91.46    0.150     73.74        0.753 0.72 1.00
           29    671      16.74 0.024      91.46    0.150     73.74        0.827 0.72 1.00
           29    672      39.33 0.032      91.46    0.150     73.74        0.767 0.72 1.00
           29    673      10.98 0.029      91.46    0.150     73.74        0.779 0.72 1.00
           29    674      11.88 0.012     121.95    0.150     73.74        1.204 0.72 1.00
           29    675       2.61 0.021      91.46    0.100     61.45        0.670 0.72 1.00
           29    676       4.77 0.092      60.98    0.100     61.45        0.339 0.72 1.00
           29    677      11.61 0.094      60.98    0.100     67.60        0.340 0.72 1.00
           29    678       3.78 0.052      60.98    0.100     67.60        0.401 0.72 1.00
           29    679       5.85 0.082      60.98    0.100     67.60        0.351 0.72 1.00
           29    680       5.04 0.063      60.98    0.100     72.87        0.380 0.72 1.00
           29    681      10.80 0.043      91.46    0.100     72.87        0.544 0.72 1.00
           29    682       5.85 0.082      60.98    0.050     67.60        0.233 0.72 1.00
           29    683       1.17 0.117      60.98    0.050     72.87        0.207 0.72 1.00
           29    684       1.53 0.035      91.46    0.050     72.87        0.379 0.72 1.00
           29    685       1.71 0.043      91.46    0.010     80.77        0.136 0.72 1.00
           29    686       2.07 0.024      91.46    0.100     67.04        0.644 0.72 1.00
           29    687       1.98 0.040      91.46    0.100     67.04        0.552 0.72 1.00
           29    688       0.45 0.032      91.46    0.100     67.04        0.590 0.72 1.00
           29    689       6.57 0.024      91.46    0.100     72.51        0.646 0.72 1.00
           29    690       1.08 0.029      91.46    0.100     72.51        0.608 0.72 1.00
           29    691       4.68 0.031      91.46    0.100     72.51        0.597 0.72 1.00
           30    692      21.87 0.024      91.46    0.140     72.87        0.804 0.72 1.00
           30    693     107.64 0.017     121.95    0.140     72.87        1.107 0.72 1.00
           30    694       3.87 0.002     121.95    0.140     72.87        1.972 0.72 1.00
           30    695       0.27 0.016     121.95    0.140     76.38        1.055 0.72 1.00
           30    696      67.23 0.011     121.95    0.140     76.38        1.228 0.72 1.00
           30    697     117.18 0.010     121.95    0.140     76.38        1.291 0.72 1.00
           30    698      86.94 0.013     121.95    0.140     76.38        1.182 0.72 1.00
           30    699      33.75 0.032      91.46    0.150     69.35        0.777 0.72 1.00
           30    700      53.37 0.017     121.95    0.150     69.35        1.118 0.72 1.00
           30    701       5.67 0.020     121.95    0.150     69.35        1.034 0.72 1.00
           30    702      15.03 0.025      91.46    0.150     73.74        0.822 0.72 1.00
           30    703      58.14 0.016     121.95    0.150     73.74        1.141 0.72 1.00
           30    704      17.46 0.009     121.95    0.150     73.74        1.321 0.72 1.00
           30    705      99.27 0.015     121.95    0.150     73.74        1.187 0.72 1.00
           30    706       0.81 0.026      91.46    0.100     67.04        0.628 0.72 1.00
           30    707       0.81 0.015     121.95    0.100     67.04        0.880 0.72 1.00
           30    708       4.41 0.012     121.95    0.100     72.51        0.944 0.72 1.00
           30    709      16.65 0.011     121.95    0.100     72.51        0.979 0.72 1.00
           30    710       9.27 0.015     121.95    0.100     72.51        0.887 0.72 1.00
           31    711      18.18 0.021      91.46    0.140     72.87        0.827 0.72 1.00
           31    712      30.69 0.016     121.95    0.140     72.87        1.069 0.72 1.00
           31    713       0.63 0.012     121.95    0.140     76.38        1.150 0.72 1.00
           31    714      13.14 0.005     121.95    0.140     76.38        1.502 0.72 1.00
           31    715       3.96 0.004     121.95    0.140     76.38        1.601 0.72 1.00
           31    716       2.16 0.010     121.95    0.140     76.38        1.216 0.72 1.00
           31    717      26.64 0.021      91.46    0.140     76.38        0.830 0.72 1.00
           31    718     177.39 0.022      91.46    0.150     69.35        0.905 0.72 1.00
           31    719     170.01 0.016     121.95    0.150     69.35        1.162 0.72 1.00
           31    720       9.00 0.028      91.46    0.150     69.35        0.787 0.72 1.00
           31    721      78.75 0.030      91.46    0.150     73.74        0.798 0.72 1.00
           31    722      28.62 0.025      91.46    0.150     73.74        0.822 0.72 1.00
           31    723      47.70 0.014     121.95    0.150     73.74        1.165 0.72 1.00
           31    724      87.21 0.016     121.95    0.150     73.74        1.134 0.72 1.00
           31    725      41.22 0.026      91.46    0.150     73.74        0.818 0.72 1.00
           31    726      54.45 0.017     121.95    0.150     73.74        1.103 0.72 1.00
           31    727     148.32 0.022      91.46    0.150     73.74        0.896 0.72 1.00
           31    728       1.89 0.025      91.46    0.100     61.45        0.636 0.72 1.00
           31    729       0.36 0.020      91.46    0.100     61.45        0.679 0.72 1.00
           31    730      18.63 0.058      60.98    0.100     67.60        0.395 0.72 1.00
           31    731      20.70 0.162      18.29    0.100     67.60        0.148 0.72 1.00
           31    732       0.27 0.011     121.95    0.100     67.60        0.965 0.72 1.00
           31    733       2.88 0.025      91.46    0.100     67.60        0.636 0.72 1.00
           31    734      27.27 0.043      91.46    0.100     67.60        0.552 0.72 1.00
           31    735       0.54 0.022      91.46    0.100     67.60        0.660 0.72 1.00
           31    736       3.87 0.013     121.95    0.100     67.60        0.920 0.72 1.00
           31    737       9.18 0.061      60.98    0.100     72.87        0.386 0.72 1.00
           31    738      11.79 0.190      18.29    0.100     72.87        0.137 0.72 1.00
           31    739       9.18 0.021      91.46    0.100     72.87        0.673 0.72 1.00
           31    740      14.22 0.035      91.46    0.100     72.87        0.581 0.72 1.00
           31    741       0.09 0.025      91.46    0.050     67.60        0.419 0.72 1.00
           31    742       0.63 0.039      91.46    0.050     67.60        0.367 0.72 1.00
           31    743       1.71 0.047      91.46    0.050     72.87        0.348 0.72 1.00
           31    744       7.38 0.137      24.39    0.050     72.87        0.118 0.72 1.00
           31    745       1.26 0.005     121.95    0.050     72.87        0.807 0.72 1.00
           31    746       0.99 0.022      91.46    0.050     72.87        0.436 0.72 1.00
           31    747       2.52 0.060      60.98    0.050     72.87        0.254 0.72 1.00
           31    748       2.43 0.006     121.95    0.050     72.87        0.765 0.72 1.00
           31    749       3.60 0.019     121.95    0.100     67.04        0.821 0.72 1.00
           31    750       1.80 0.020      91.46    0.100     67.04        0.680 0.72 1.00
           31    751       1.71 0.008     121.95    0.100     72.51        1.062 0.72 1.00
           31    752       2.43 0.022      91.46    0.100     72.51        0.661 0.72 1.00
           31    753       0.72 0.015     121.95    0.100     72.51        0.879 0.72 1.00
           31    754       2.97 0.011     121.95    0.100     72.51        0.966 0.72 1.00
           31    755       2.52 0.013     121.95    0.100     72.51        0.919 0.72 1.00
           32    756      22.14 0.014     121.95    0.140     72.87        1.107 0.72 1.00
           32    757      57.42 0.021      91.46    0.140     72.87        0.839 0.72 1.00
           32    758      42.21 0.016     121.95    0.140     76.38        1.071 0.72 1.00
           32    759       1.89 0.016     121.95    0.140     76.38        1.056 0.72 1.00
           32    760      97.92 0.023      91.46    0.150     69.35        0.863 0.72 1.00
           32    761     152.37 0.021      91.46    0.150     69.35        0.901 0.72 1.00
           32    762       0.45 0.061      60.98    0.150     69.35        0.486 0.72 1.00
           32    763      14.31 0.018     121.95    0.150     73.74        1.067 0.72 1.00
           32    764      24.84 0.014     121.95    0.150     73.74        1.154 0.72 1.00
           32    765      44.01 0.026      91.46    0.150     73.74        0.816 0.72 1.00
           32    766      17.55 0.021      91.46    0.150     73.74        0.860 0.72 1.00
           32    767       1.17 0.263       9.15    0.100     61.45        0.079 0.72 1.00
           32    768       1.08 0.168      18.29    0.100     67.60        0.137 0.72 1.00
           32    769       0.72 0.010     121.95    0.100     67.60        0.993 0.72 1.00
           32    770       0.54 0.177      18.29    0.100     67.60        0.135 0.72 1.00
           32    771       2.97 0.036      91.46    0.100     72.87        0.570 0.72 1.00
           32    772       1.44 0.065      60.98    0.050     67.60        0.247 0.72 1.00
           32    773       0.36 0.011     121.95    0.050     72.87        0.637 0.72 1.00
           32    774       6.39 0.023      91.46    0.050     72.87        0.432 0.72 1.00
           32    775       0.90 0.007     121.95    0.100     67.04        1.105 0.72 1.00
           32    776       4.14 0.024      91.46    0.100     67.04        0.644 0.72 1.00
           33    777       1.08 0.017     121.95    0.140     72.87        1.038 0.72 1.00
           33    778       2.97 0.129      24.39    0.150     60.58        0.229 0.72 1.00
           33    779     151.74 0.016     121.95    0.150     69.35        1.249 0.72 1.00
           33    780      33.66 0.024      91.46    0.150     69.35        0.859 0.72 1.00
           33    781      10.53 0.107      60.98    0.150     69.35        0.425 0.72 1.00
           33    782      42.03 0.018     121.95    0.150     73.74        1.110 0.72 1.00
           33    783       5.22 0.137      24.39    0.150     73.74        0.228 0.72 1.00
           33    784     117.99 0.021      91.46    0.150     73.74        0.973 0.72 1.00
           33    785      27.99 0.014     121.95    0.150     73.74        1.179 0.72 1.00
           33    786       6.12 0.191      18.29    0.100     61.45        0.140 0.72 1.00
           33    787       7.29 0.187      18.29    0.100     67.60        0.143 0.72 1.00
           33    788       5.40 0.178      18.29    0.100     67.60        0.142 0.72 1.00
           33    789      46.98 0.057      60.98    0.100     67.60        0.442 0.72 1.00
           33    790       2.43 0.022      91.46    0.100     67.60        0.663 0.72 1.00
           33    791       0.09 0.069      60.98    0.100     67.60        0.367 0.72 1.00
           33    792       2.43 0.141      24.39    0.100     67.60        0.175 0.72 1.00
           33    793       7.02 0.179      18.29    0.100     72.87        0.144 0.72 1.00
           33    794       2.43 0.152      24.39    0.100     72.87        0.171 0.72 1.00
           33    795      79.74 0.024      91.46    0.100     72.87        0.728 0.72 1.00
           33    796       4.23 0.018     121.95    0.100     72.87        0.839 0.72 1.00
           33    797       1.26 0.029      91.46    0.050     57.94        0.403 0.72 1.00
           33    798      29.16 0.108      60.98    0.050     67.60        0.247 0.72 1.00
           33    799       5.76 0.239      15.24    0.050     72.87        0.081 0.72 1.00
           33    800       1.44 0.205      15.24    0.050     72.87        0.079 0.72 1.00
           33    801      28.80 0.030      91.46    0.050     72.87        0.431 0.72 1.00
           33    802       2.16 0.016     121.95    0.050     72.87        0.572 0.72 1.00
           34    803      25.83 0.010     121.95    0.140     67.60        1.226 0.72 1.00
           34    804       0.09 0.036      91.46    0.140     76.38        0.696 0.72 1.00
           34    805       1.71 0.011     121.95    0.140     76.38        1.181 0.72 1.00
           34    806      34.56 0.013     121.95    0.140     76.38        1.137 0.72 1.00
           34    807      83.34 0.009     121.95    0.140     76.38        1.284 0.72 1.00
           34    808      11.34 0.010     121.95    0.140     76.38        1.220 0.72 1.00
           34    809      32.04 0.017     121.95    0.150     60.58        1.093 0.72 1.00
           34    810       2.25 0.057      60.98    0.150     69.35        0.497 0.72 1.00
           34    811      13.86 0.018     121.95    0.150     73.74        1.068 0.72 1.00
           34    812       6.48 0.041      91.46    0.150     73.74        0.701 0.72 1.00
           34    813     127.80 0.020     121.95    0.150     73.74        1.073 0.72 1.00
[...]
           66   1593       0.54        26.290         0.985    499.732   0.217      500.000  0.050    0.000     0.000
           66   1594       2.07        26.290         0.985    499.732   0.217      500.000  0.050    0.000     0.000
           66   1595       4.32        26.290         0.985    499.732   0.217      500.000  0.050    0.000     0.000
           66   1596       0.45        26.290         0.985    499.732   0.217      500.000  0.050    0.000     0.000
           66   1597      29.43        26.290         0.985    499.732   0.217      500.000  0.050    0.000     0.000
           66   1598      18.36        26.290         0.985    499.732   0.217      500.000  0.050    0.000     0.000
           66   1599       0.45        26.290         0.985    499.732   0.217      500.000  0.050    0.000     0.000
           66   1600       3.42        26.290         0.985    499.732   0.217      500.000  0.050    0.000     0.000
           66   1601       0.63        26.290         0.985    499.732   0.217      500.000  0.050    0.000     0.000
           66   1602       3.69        26.290         0.985    499.732   0.217      500.000  0.050    0.000     0.000
           66   1603       0.99        26.290         0.985    499.732   0.217      500.000  0.050    0.000     0.000
           66   1604       0.63        26.290         0.985    499.732   0.217      500.000  0.050    0.000     0.000
           66   1605       0.81        26.290         0.985    499.732   0.217      500.000  0.050    0.000     0.000
           66   1606       0.54        26.290         0.985    499.732   0.217      500.000  0.050    0.000     0.000
           66   1607       0.36        26.290         0.985    499.732   0.217      500.000  0.050    0.000     0.000
           66   1608       0.81        26.290         0.985    499.732   0.217      500.000  0.050    0.000     0.000
           66   1609       0.72        26.290         0.985    499.732   0.217      500.000  0.050    0.000     0.000
           66   1610       6.30        26.290         0.985    499.732   0.217      500.000  0.050    0.000     0.000
           66   1611       1.26        26.290         0.985    499.732   0.217      500.000  0.050    0.000     0.000
           66   1612       0.18        26.290         0.985    499.732   0.217      500.000  0.050    0.000     0.000
           66   1613       1.17        26.290         0.985    499.732   0.217      500.000  0.050    0.000     0.000
           66   1614       6.21        26.290         0.985    499.732   0.217      500.000  0.050    0.000     0.000
           66   1615       3.60        26.290         0.985    499.732   0.217      500.000  0.050    0.000     0.000
           66   1616       2.25        26.290         0.985    499.732   0.217      500.000  0.050    0.000     0.000
           66   1617       2.25        26.290         0.985    499.732   0.217      500.000  0.050    0.000     0.000
           66   1618       0.90        26.290         0.985    499.732   0.217      500.000  0.050    0.000     0.000
           66   1619       2.07        26.290         0.985    499.732   0.217      500.000  0.050    0.000     0.000
           66   1620       4.86        26.290         0.985    499.732   0.217      500.000  0.050    0.000     0.000
           67   1621      31.59        26.290         0.985    499.732   0.217      500.000  0.050    0.000     0.000
           67   1622       2.97        26.290         0.985    499.732   0.217      500.000  0.050    0.000     0.000
           67   1623       0.54        26.290         0.985    499.732   0.217      500.000  0.050    0.000     0.000
           67   1624       1.62        26.290         0.985    499.732   0.217      500.000  0.050    0.000     0.000
           67   1625      37.53        26.290         0.985    499.732   0.217      500.000  0.050    0.000     0.000
           67   1626      53.73        26.290         0.985    499.732   0.217      500.000  0.050    0.000     0.000
           67   1627       0.63        26.290         0.985    499.732   0.217      500.000  0.050    0.000     0.000
           67   1628      33.48        26.290         0.985    499.732   0.217      500.000  0.050    0.000     0.000
           67   1629      35.55        26.290         0.985    499.732   0.217      500.000  0.050    0.000     0.000
           67   1630       9.63        26.290         0.985    499.732   0.217      500.000  0.050    0.000     0.000
           67   1631      28.17        26.290         0.985    499.732   0.217      500.000  0.050    0.000     0.000
           67   1632     131.04        26.290         0.985    499.732   0.217      500.000  0.050    0.000     0.000
           67   1633       9.18        26.290         0.985    499.732   0.217      500.000  0.050    0.000     0.000
           67   1634     103.68        26.290         0.985    499.732   0.217      500.000  0.050    0.000     0.000
           67   1635      62.10        26.290         0.985    499.732   0.217      500.000  0.050    0.000     0.000
           67   1636       1.35        26.290         0.985    499.732   0.217      500.000  0.050    0.000     0.000
           67   1637      19.98        26.290         0.985    499.732   0.217      500.000  0.050    0.000     0.000
           67   1638       1.35        26.290         0.985    499.732   0.217      500.000  0.050    0.000     0.000
           67   1639       0.09        26.290         0.985    499.732   0.217      500.000  0.050    0.000     0.000
           67   1640       0.54        26.290         0.985    499.732   0.217      500.000  0.050    0.000     0.000
           67   1641       1.71        26.290         0.985    499.732   0.217      500.000  0.050    0.000     0.000
           67   1642       0.09        26.290         0.985    499.732   0.217      500.000  0.050    0.000     0.000
           67   1643       0.99        26.290         0.985    499.732   0.217      500.000  0.050    0.000     0.000
           67   1644       9.72        26.290         0.985    499.732   0.217      500.000  0.050    0.000     0.000
           67   1645       0.63        26.290         0.985    499.732   0.217      500.000  0.050    0.000     0.000
           67   1646       3.33        26.290         0.985    499.732   0.217      500.000  0.050    0.000     0.000
           67   1647       6.30        26.290         0.985    499.732   0.217      500.000  0.050    0.000     0.000
           67   1648      23.94        26.290         0.985    499.732   0.217      500.000  0.050    0.000     0.000
           67   1649       8.01        26.290         0.985    499.732   0.217      500.000  0.050    0.000     0.000
           67   1650       6.57        26.290         0.985    499.732   0.217      500.000  0.050    0.000     0.000
           67   1651      24.39        26.290         0.985    499.732   0.217      500.000  0.050    0.000     0.000
           67   1652       5.31        26.290         0.985    499.732   0.217      500.000  0.050    0.000     0.000
           67   1653       7.29        26.290         0.985    499.732   0.217      500.000  0.050    0.000     0.000
           67   1654       4.14        26.290         0.985    499.732   0.217      500.000  0.050    0.000     0.000
           67   1655       1.62        26.290         0.985    499.732   0.217      500.000  0.050    0.000     0.000
           67   1656       2.16        26.290         0.985    499.732   0.217      500.000  0.050    0.000     0.000
           67   1657       0.81        26.290         0.985    499.732   0.217      500.000  0.050    0.000     0.000
           67   1658       0.99        26.290         0.985    499.732   0.217      500.000  0.050    0.000     0.000
           67   1659       2.61        26.290         0.985    499.732   0.217      500.000  0.050    0.000     0.000
           67   1660       0.27        26.290         0.985    499.732   0.217      500.000  0.050    0.000     0.000
           67   1661       7.74        26.290         0.985    499.732   0.217      500.000  0.050    0.000     0.000
           67   1662       6.66        26.290         0.985    499.732   0.217      500.000  0.050    0.000     0.000
           68   1663      39.42        26.290         0.985    499.732   0.217      500.000  0.050    0.000     0.000
           68   1664       1.08        26.290         0.985    499.732   0.217      500.000  0.050    0.000     0.000
           68   1665       0.90        26.290         0.985    499.732   0.217      500.000  0.050    0.000     0.000
           68   1666      26.28        26.290         0.985    499.732   0.217      500.000  0.050    0.000     0.000
           68   1667       9.18        26.290         0.985    499.732   0.217      500.000  0.050    0.000     0.000
           68   1668       8.73        26.290         0.985    499.732   0.217      500.000  0.050    0.000     0.000
           68   1669       0.99        26.290         0.985    499.732   0.217      500.000  0.050    0.000     0.000
           68   1670      11.61        26.290         0.985    499.732   0.217      500.000  0.050    0.000     0.000
           68   1671       2.43        26.290         0.985    499.732   0.217      500.000  0.050    0.000     0.000
           68   1672       3.33        26.290         0.985    499.732   0.217      500.000  0.050    0.000     0.000
           68   1673       0.09        26.290         0.985    499.732   0.217      500.000  0.050    0.000     0.000
           68   1674       0.63        26.290         0.985    499.732   0.217      500.000  0.050    0.000     0.000
           68   1675       4.95        26.290         0.985    499.732   0.217      500.000  0.050    0.000     0.000
           68   1676       2.61        26.290         0.985    499.732   0.217      500.000  0.050    0.000     0.000
           68   1677       1.53        26.290         0.985    499.732   0.217      500.000  0.050    0.000     0.000
           68   1678       0.81        26.290         0.985    499.732   0.217      500.000  0.050    0.000     0.000
           68   1679       9.81        26.290         0.985    499.732   0.217      500.000  0.050    0.000     0.000
           68   1680       1.17        26.290         0.985    499.732   0.217      500.000  0.050    0.000     0.000
           68   1681       0.81        26.290         0.985    499.732   0.217      500.000  0.050    0.000     0.000
           68   1682       0.72        26.290         0.985    499.732   0.217      500.000  0.050    0.000     0.000
           68   1683       0.09        26.290         0.985    499.732   0.217      500.000  0.050    0.000     0.000
           68   1684       0.90        26.290         0.985    499.732   0.217      500.000  0.050    0.000     0.000
           68   1685       0.54        26.290         0.985    499.732   0.217      500.000  0.050    0.000     0.000
           69   1686       7.02        26.290         0.985    499.732   0.217      500.000  0.050    0.000     0.000
           69   1687       0.72        26.290         0.985    499.732   0.217      500.000  0.050    0.000     0.000
           69   1688       0.09        26.290         0.985    499.732   0.217      500.000  0.050    0.000     0.000
           69   1689       3.24        26.290         0.985    499.732   0.217      500.000  0.050    0.000     0.000
           69   1690       7.47        26.290         0.985    499.732   0.217      500.000  0.050    0.000     0.000
           69   1691       4.95        26.290         0.985    499.732   0.217      500.000  0.050    0.000     0.000
           69   1692       0.63        26.290         0.985    499.732   0.217      500.000  0.050    0.000     0.000
           69   1693       0.81        26.290         0.985    499.732   0.217      500.000  0.050    0.000     0.000

         Tributary/Main Channel Characteristics
              |--------------Tributary--------------------|---------------------Main---------------------------|
          Sub  Length(km) Slope Width(m) Cond(mm/hr)     N Length(km) Slope Width(m) Depth(m) Cond(mm/hr)     N
            1        8.12 0.007     8.34      0.0000 0.014       8.12 0.007     8.34     0.45      0.0000 0.014
            2        3.78 0.014     4.90      0.0000 0.014       3.78 0.014     4.90     0.32      0.0000 0.014
            3        1.57 0.013     3.75      0.0000 0.014       1.57 0.013     3.75     0.26      0.0000 0.014
            4        2.35 0.009     3.92      0.0000 0.014       2.35 0.009     3.92     0.27      0.0000 0.014
            5        3.62 0.006     4.98      0.0000 0.014       3.62 0.006     4.98     0.32      0.0000 0.014
            6        3.27 0.006     4.68      0.0000 0.014       3.27 0.006     4.68     0.31      0.0000 0.014
            7       13.23 0.006     9.92      0.0000 0.014      13.23 0.006     9.92     0.51      0.0000 0.014
            8        1.98 0.012     3.34      0.0000 0.014       1.98 0.012     3.34     0.25      0.0000 0.014
            9        2.15 0.010     3.53      0.0000 0.014       2.15 0.010     3.53     0.25      0.0000 0.014
           10        4.79 0.010     4.72      0.0000 0.014       4.79 0.010     4.72     0.31      0.0000 0.014
           11       13.62 0.006    11.31      0.0000 0.014      13.62 0.006    11.31     0.55      0.0000 0.014
           12        0.61 0.007     2.93      0.0000 0.014       0.62 0.007     2.93     0.22      0.0000 0.014
           13        1.65 0.005     3.31      0.0000 0.014       1.65 0.005     3.31     0.24      0.0000 0.014
           14        3.17 0.004     4.99      0.0000 0.014       3.17 0.004     4.99     0.32      0.0000 0.014
           15        1.53 0.014     2.80      0.0000 0.014       1.53 0.014     2.80     0.22      0.0000 0.014
           16        2.99 0.014     4.63      0.0000 0.014       2.99 0.014     4.63     0.31      0.0000 0.014
           17        2.10 0.010     3.37      0.0000 0.014       2.10 0.010     3.37     0.25      0.0000 0.014
           18        1.56 0.009     3.17      0.0000 0.014       1.56 0.009     3.17     0.24      0.0000 0.014
           19        3.70 0.011     4.49      0.0000 0.014       3.70 0.011     4.49     0.30      0.0000 0.014
           20        6.59 0.004     6.12      0.0000 0.014       6.59 0.004     9.47     0.49      0.0000 0.014
           21        0.23 0.027     2.06      0.0000 0.014       0.23 0.027     2.06     0.18      0.0000 0.014
           22        0.56 0.011     2.24      0.0000 0.014       0.56 0.011     2.24     0.19      0.0000 0.014
           23        6.29 0.008     7.21      0.0000 0.014       6.30 0.008     7.21     0.41      0.0000 0.014
           24        0.80 0.016     2.39      0.0000 0.014       0.80 0.016     2.39     0.20      0.0000 0.014
           25        4.43 0.004     6.07      0.0000 0.014       4.43 0.004     6.07     0.37      0.0000 0.014
           26        2.37 0.018     4.40      0.0000 0.014       2.37 0.018     4.40     0.29      0.0000 0.014
           27        1.77 0.019     3.50      0.0000 0.014       1.77 0.019     3.50     0.25      0.0000 0.014
           28        3.61 0.005     4.03      0.0000 0.014       3.61 0.005    10.62     0.53      0.0000 0.014
           29        1.48 0.013     3.53      0.0000 0.014       1.48 0.013     3.53     0.25      0.0000 0.014
           30        2.15 0.003     4.22      0.0000 0.014       2.15 0.003     4.22     0.29      0.0000 0.014
           31        3.31 0.013     5.41      0.0000 0.014       3.31 0.013     5.41     0.34      0.0000 0.014
           32        1.57 0.022     3.37      0.0000 0.014       1.57 0.022     3.37     0.25      0.0000 0.014
           33        3.54 0.005     3.88      0.0000 0.014       3.54 0.005    16.43     0.71      0.0000 0.014
           34        1.22 0.008     3.50      0.0000 0.014       1.22 0.008     3.50     0.25      0.0000 0.014
           35        1.42 0.005     3.71      0.0000 0.014       1.42 0.005     3.71     0.26      0.0000 0.014
           36        0.20 0.027     2.06      0.0000 0.014       0.20 0.027     2.06     0.18      0.0000 0.014
           37        4.09 0.010     4.91      0.0000 0.014       4.09 0.010     4.91     0.32      0.0000 0.014
           38        0.78 0.003     0.75      0.0000 0.014       0.78 0.003    32.67     1.12      0.0000 0.014
           39        1.26 0.009     3.45      0.0000 0.014       1.26 0.009     3.45     0.25      0.0000 0.014
           40        0.94 0.005     1.59      0.0000 0.014       0.94 0.005     8.20     0.45      0.0000 0.014
           41        1.91 0.005     3.35      0.0000 0.014       1.91 0.005    10.90     0.54      0.0000 0.014
           42        1.09 0.009     0.89      0.0000 0.014       1.09 0.009     4.62     0.31      0.0000 0.014
           43        2.91 0.002     3.09      0.0000 0.014       2.91 0.002    38.91     1.26      0.0000 0.014
           44        0.80 0.007     1.56      0.0000 0.014       0.80 0.007     6.81     0.39      0.0000 0.014
           45        2.21 0.003     2.88      0.0000 0.014       2.21 0.003    10.21     0.52      0.0000 0.014
           46        0.61 0.003     0.68      0.0000 0.014       0.62 0.003    12.61     0.59      0.0000 0.014
           47        1.40 0.006     1.67      0.0000 0.014       1.40 0.006    11.87     0.57      0.0000 0.014
           48        3.54 0.002     4.32      0.0000 0.014       3.55 0.002    39.97     1.28      0.0000 0.014
           49        1.15 0.006     1.16      0.0000 0.014       1.15 0.006     8.09     0.44      0.0000 0.014
           50       10.92 0.004     7.99      0.0000 0.014      10.92 0.004    15.19     0.67      0.0000 0.014
           51        1.92 0.003     3.12      0.0000 0.014       1.92 0.003    13.69     0.63      0.0000 0.014
           52        9.54 0.003     8.34      0.0000 0.014       9.54 0.003    24.79     0.93      0.0000 0.014
           53        5.65 0.004     6.15      0.0000 0.014       5.65 0.004    12.01     0.57      0.0000 0.014
           54        4.47 0.005     4.83      0.0000 0.014       4.47 0.005    11.92     0.57      0.0000 0.014
           55        2.62 0.005     3.08      0.0000 0.014       2.62 0.005    15.63     0.69      0.0000 0.014
           56        0.60 0.003     0.86      0.0000 0.014       0.60 0.003    28.67     1.03      0.0000 0.014
           57        1.59 0.004     2.16      0.0000 0.014       1.59 0.004    13.31     0.62      0.0000 0.014
           58        0.43 0.002     0.54      0.0000 0.014       0.43 0.002    51.68     1.52      0.0000 0.014
           59        0.93 0.004     1.34      0.0000 0.014       0.93 0.004    16.48     0.71      0.0000 0.014
           60        0.37 0.003     0.39      0.0000 0.014       0.37 0.003    29.74     1.05      0.0000 0.014
           61        2.44 0.005     2.39      0.0000 0.014       2.44 0.005    14.21     0.64      0.0000 0.014
           62        1.53 0.003     1.68      0.0000 0.014       1.53 0.003    17.21     0.73      0.0000 0.014
           63        3.03 0.002     3.87      0.0000 0.014       3.03 0.002    30.53     1.07      0.0000 0.014
           64        2.30 0.006     2.94      0.0000 0.014       2.31 0.006    21.12     0.84      0.0000 0.014
           65        4.72 0.003     5.01      0.0000 0.014       4.72 0.003    31.88     1.10      0.0000 0.014
           66        0.88 0.004     1.37      0.0000 0.014       0.88 0.004    40.44     1.29      0.0000 0.014
           67        3.46 0.002     4.11      0.0000 0.014       3.46 0.002    48.65     1.46      0.0000 0.014
           68        1.74 0.002     1.50      0.0000 0.014       1.74 0.002    49.29     1.48      0.0000 0.014
           69        0.87 0.004     0.56      0.0000 0.014       0.87 0.004    49.66     1.48      0.0000 0.014
