1
    SWAT Dec 23 2016    VER 2016/Rev 664                                                                 0/ 0/   0      0: 0: 0

    General Input/Output section (file.cio):                                        
    4/9/2015 12:00:00 AM ARCGIS-SWAT interface AV                                   
                                                                                    
         Number of years in run:   26
         Area of watershed:      469.120 km2
1
    SWAT Dec 23 2016    VER 2016/Rev 664                                            

    General Input/Output section (file.cio):                                        
    4/9/2015 12:00:00 AM ARCGIS-SWAT interface AV                                   
                                                                                    
Annual Summary for Watershed in year    1 of simulation

UNIT                                    PERCO    TILE                           WATER     SED     NO3     NO3     NO3     NO3        N       P       P
TIME     PREC    SURQ    LATQ     GWQ    LATE       Q     SW       ET     PET   YIELD   YIELD    SURQ    LATQ    PERC    CROP  ORGANIC SOLUBLE ORGANIC TILENO3
         (mm)    (mm)    (mm)    (mm)    (mm)    (mm)    (mm)    (mm)    (mm)    (mm)   (t/ha)  ------------------(kg nutrient/ha)-------------------- (kg/ha)
    1   90.40    1.37    0.64    0.96    3.95    0.00  147.68   22.04   35.96    2.98    0.10    0.00    0.02    1.72    0.00     0.39    0.00    0.05    0.00
    2   36.00    0.07    1.05    4.12    4.36    0.00  135.37   43.29   61.25    5.28    0.00    0.00    0.03    1.49    0.00     0.01    0.00    0.00    0.00
    3   52.50    0.07    0.64    1.95    0.00    0.00  135.48   51.69   89.17    2.74    0.00    0.00    0.01    0.00    0.00     0.01    0.00    0.00    0.00
    4   67.80    0.42    0.83    0.60    0.02    0.00  130.46   71.48  127.38    1.90    0.01    0.03    0.00    0.01   28.30     0.03    0.00    0.00    0.00
    5  191.00   25.73    2.47   10.35   22.63    0.00  145.30  124.32  154.51   38.69    0.23    0.01    0.01    1.51   26.56     0.90    0.00    0.11    0.00
    6   28.00    0.06    1.26    7.78    0.00    0.00   53.07  120.08  250.51    9.34    0.00    0.00    0.00    0.00    5.20     0.00    0.00    0.00    0.00
    7    1.80    0.00    0.55    2.53    0.00    0.00   17.97   37.18  275.26    3.32    0.00    0.00    0.00    0.00    0.56     0.00    0.00    0.00    0.00
    8    5.50    0.00    0.21    0.78    0.00    0.00   12.06   11.64  254.28    1.18    0.00    0.00    0.00    0.00    0.12     0.00    0.00    0.00    0.00
    9   54.90    0.09    0.41    0.24    0.00    0.00   34.97   31.34  170.70    0.88    0.00    0.00    0.00    0.00    0.00     0.00    0.00    0.00    0.00
   10   39.60    0.05    0.47    0.08    0.00    0.00   41.61   32.52  119.88    0.71    0.00    0.00    0.00    0.00    0.00     0.00    0.00    0.00    0.00
   11   58.00    0.31    0.69    0.02    0.00    0.00   72.19   26.10   83.73    1.10    0.01    0.00    0.01    0.00    0.00     0.03    0.00    0.00    0.00
   12   33.20    0.74    0.89    0.33    0.59    0.00   73.65   29.78   55.48    2.02    0.03    0.00    0.01    0.03    0.00     0.10    0.00    0.01    0.00

 1980  658.70   28.90   10.12   29.74   31.55    0.00   73.65  601.47 1678.10   70.14    0.37    0.04    0.09    4.75   60.74     1.48    0.00    0.18    0.00
1
    SWAT Dec 23 2016    VER 2016/Rev 664                                            

    General Input/Output section (file.cio):                                        
    4/9/2015 12:00:00 AM ARCGIS-SWAT interface AV                                   
                                                                                    
Annual Summary for Watershed in year    2 of simulation

UNIT                                    PERCO    TILE                           WATER     SED     NO3     NO3     NO3     NO3        N       P       P
TIME     PREC    SURQ    LATQ     GWQ    LATE       Q     SW       ET     PET   YIELD   YIELD    SURQ    LATQ    PERC    CROP  ORGANIC SOLUBLE ORGANIC TILENO3
         (mm)    (mm)    (mm)    (mm)    (mm)    (mm)    (mm)    (mm)    (mm)    (mm)   (t/ha)  ------------------(kg nutrient/ha)-------------------- (kg/ha)
    1   53.90    0.97    0.80    0.43    0.74    0.00   90.34   34.57   56.70    2.25    0.06    0.00    0.01    0.10    0.00     0.20    0.00    0.02    0.00
    2   49.00    0.20    0.79    1.13    1.64    0.00  101.60   35.13   47.53    2.16    0.01    0.00    0.01    0.18    0.00     0.02    0.00    0.00    0.00
    3  124.10    6.35    1.49    5.65    9.76    0.00  132.37   74.79  110.34   13.56    0.34    0.00    0.01    1.13    0.42     1.27    0.00    0.16    0.00
    4   79.00    7.21    1.40    3.63    2.20    0.00  132.34   68.34  111.41   12.37    0.08    0.04    0.01    0.05   14.72     0.33    0.00    0.04    0.00
    5   38.00    0.04    1.07    2.11    0.00    0.00   90.11   79.99  125.35    3.34    0.00    0.00    0.00    0.00   18.25     0.00    0.00    0.00    0.00
    6  143.40    4.88    1.70    2.61    5.00    0.00  111.63  109.51  142.54    9.32    0.04    0.00    0.00    0.01    6.13     0.16    0.00    0.02    0.00
    7   37.00    0.04    1.14    2.08    0.00    0.00   49.21   99.20  208.05    3.40    0.00    0.00    0.00    0.00    1.10     0.00    0.00    0.00    0.00
    8   34.70    0.04    0.56    0.64    0.00    0.00   39.98   43.75  211.05    1.36    0.00    0.00    0.00    0.00    0.38     0.00    0.00    0.00    0.00
    9   65.50    0.11    0.91    0.19    0.00    0.00   48.66   55.86  153.40    1.30    0.00    0.00    0.00    0.00    0.08     0.00    0.00    0.00    0.00
   10  193.20    5.62    2.30    4.97   22.55    0.00  159.91   49.48   85.36   12.83    0.13    0.00    0.01    0.56    0.01     0.50    0.00    0.06    0.00
   11   26.10    0.04    1.60    4.23    0.05    0.00  135.45   50.25   88.73    6.26    0.00    0.00    0.00    0.00    0.00     0.01    0.00    0.00    0.00
   12   10.80    0.00    0.70    2.57    0.00    0.00  119.47   26.76   47.82    3.52    0.00    0.00    0.00    0.00    0.00     0.00    0.00    0.00    0.00

 1981  854.70   25.50   14.44   30.23   41.95    0.00  119.47  727.63 1388.28   71.67    0.64    0.05    0.05    2.02   41.10     2.50    0.01    0.31    0.00
1
    SWAT Dec 23 2016    VER 2016/Rev 664                                            

    General Input/Output section (file.cio):                                        
    4/9/2015 12:00:00 AM ARCGIS-SWAT interface AV                                   
                                                                                    
Annual Summary for Watershed in year    3 of simulation

UNIT                                    PERCO    TILE                           WATER     SED     NO3     NO3     NO3     NO3        N       P       P
TIME     PREC    SURQ    LATQ     GWQ    LATE       Q     SW       ET     PET   YIELD   YIELD    SURQ    LATQ    PERC    CROP  ORGANIC SOLUBLE ORGANIC TILENO3
         (mm)    (mm)    (mm)    (mm)    (mm)    (mm)    (mm)    (mm)    (mm)    (mm)   (t/ha)  ------------------(kg nutrient/ha)-------------------- (kg/ha)
    1   60.60    0.66    0.57    0.91    0.30    0.00  154.37   23.64   38.76    2.33    0.02    0.00    0.00    0.02    0.00     0.06    0.00    0.01    0.00
    2   34.60    0.07    0.77    1.04    1.04    0.00  151.03   36.31   48.40    2.04    0.00    0.00    0.00    0.04    0.00     0.00    0.00    0.00    0.00
    3   50.40    0.06    0.65    0.42    0.02    0.00  149.84   50.91   65.13    1.27    0.00    0.00    0.00    0.00    0.00     0.00    0.00    0.00    0.00
    4   81.30    2.36    1.02    1.10    6.54    0.00  141.80   79.00  112.68    4.58    0.06    0.03    0.01    0.31    9.78     0.28    0.00    0.03    0.00
    5  108.50    2.72    1.47    2.66    1.95    0.00  152.16   91.83  115.57    6.99    0.05    0.01    0.01    0.01   18.19     0.18    0.00    0.02    0.00
    6   35.70    0.04    0.96    1.77    0.00    0.00   78.29  109.39  198.57    2.90    0.00    0.00    0.00    0.00   12.33     0.00    0.00    0.00    0.00
