1
    SWAT Dec 23 2016    VER 2016/Rev 664                                                                 0/ 0/   0      0: 0: 0

    General Input/Output section (file.cio):                                        
    4/9/2015 12:00:00 AM ARCGIS-SWAT interface AV                                   
                                                                                    


LULC  HRU       GIS  SUB  MGT  MON   AREAkm2  PRECIPmm
AGRL    1 000010001    1    0    1.80640E+00    90.400
AGRL    1 000010001    1    0    2.80640E+00    36.000
AGRL    1 000010001    1    0    3.80640E+00    52.500
AGRL    1 000010001    1    0    4.80640E+00    67.800
AGRL    1 000010001    1    0    5.80640E+00   191.000
AGRL    1 000010001    1    0    6.80640E+00    28.000
AGRL    1 000010001    1    0    7.80640E+00     1.800
AGRL    1 000010001    1    0    8.80640E+00     5.500
AGRL    1 000010001    1    0    9.80640E+00    54.900
AGRL    1 000010001    1    0   10.80640E+00    39.600
AGRL    1 000010001    1    0   11.80640E+00    58.000
AGRL    1 000010001    1    0   12.80640E+00    33.200
AGRL    1 000010001    1    0 1980.80640E+00   658.700
AGRL    1 000010001    1    0    1.80640E+00    53.900
AGRL    1 000010001    1    0    2.80640E+00    49.000
AGRL    1 000010001    1    0    3.80640E+00   124.100
AGRL    1 000010001    1    0    4.80640E+00    79.000
AGRL    1 000010001    1    0    5.80640E+00    38.000
AGRL    1 000010001    1    0    6.80640E+00   143.400
AGRL    1 000010001    1    0    7.80640E+00    37.000
AGRL    1 000010001    1    0    8.80640E+00    34.700
AGRL    1 000010001    1    0    9.80640E+00    65.500
AGRL    1 000010001    1    0   10.80640E+00   193.200
AGRL    1 000010001    1    0   11.80640E+00    26.100
AGRL    1 000010001    1    0   12.80640E+00    10.800
AGRL    1 000010001    1    0 1981.80640E+00   854.700
AGRL    1 000010001    1    0    1.80640E+00    60.600
AGRL    1 000010001    1    0    2.80640E+00    34.600
AGRL    1 000010001    1    0    3.80640E+00    50.400
AGRL    1 000010001    1    0    4.80640E+00    81.300
AGRL    1 000010001    1    0    5.80640E+00   108.500
AGRL    1 000010001    1    0    6.80640E+00    35.700
