1
    SWAT Dec 23 2016    VER 2016/Rev 664                                                                 0/ 0/   0      0: 0: 0

    General Input/Output section (file.cio):                                        
    4/9/2015 12:00:00 AM ARCGIS-SWAT interface AV                                   
                                                                                    


       SUB      GIS  MON   AREAkm2  PRECIPmm SNOMELTmm     PETmm      ETmm      SWmm    PERCmm    SURQmm    GW_Qmm    WYLDmm  SYLDt/ha ORGNkg/ha ORGPkg/haNSURQkg/ha SOLPkg/ha SEDPkg/ha LAT Q(mm)LATNO3kg/hGWNO3kg/haCHOLAmic/LCBODU mg/L DOXQ mg/L TNO3kg/ha   QTILEmm TVAPkg/ha
BIGSUB   1        0    1.22436E+02    90.400     0.000    35.890    21.076   137.089     2.706     1.056     0.658     2.255     0.054     0.289     0.036     0.001     0.000     0.037     0.539     0.020     0.001 .00000E+00 0.000E+00 0.000E+00 0.000E+00 0.000E+00 0.000E+00
BIGSUB   2        0    1.92592E+01    90.400     0.000    35.900    21.409   157.360     2.097     0.674     0.507     1.915     0.057     0.312     0.038     0.000     0.000     0.033     0.733     0.027     0.001 .00000E+00 0.000E+00 0.000E+00 0.000E+00 0.000E+00 0.000E+00
BIGSUB   3        0    1.59202E+01    90.400     0.000    36.000    22.393   144.920     5.353     1.719     1.303     3.202     0.077     0.239     0.029     0.001     0.000     0.044     0.177     0.006     0.001 .00000E+00 0.000E+00 0.000E+00 0.000E+00 0.000E+00 0.000E+00
BIGSUB   4        0    1.63702E+01    90.400     0.000    35.924    21.668   170.835     0.659     0.395     0.161     0.684     0.017     0.074     0.009     0.000     0.000     0.012     0.127     0.004     0.000 .00000E+00 0.000E+00 0.000E+00 0.000E+00 0.000E+00 0.000E+00
BIGSUB   5        0    1.94950E+01    90.400     0.000    35.930    21.539   184.957     0.392     0.191     0.095     0.342     0.006     0.033     0.004     0.000     0.000     0.005     0.055     0.002     0.000 .00000E+00 0.000E+00 0.000E+00 0.000E+00 0.000E+00 0.000E+00
BIGSUB   6        0    1.85689E+01    90.400     0.000    35.954    21.511   159.321     2.205     1.675     0.536     2.233     0.060     0.218     0.027     0.001     0.000     0.040     0.021     0.001     0.000 .00000E+00 0.000E+00 0.000E+00 0.000E+00 0.000E+00 0.000E+00
BIGSUB   7        0    1.29949E+02    90.400     0.000    35.967    22.993   124.442     5.775     2.782     1.402     4.283     0.163     0.500     0.061     0.001     0.001     0.093     0.095     0.003     0.001 .00000E+00 0.000E+00 0.000E+00 0.000E+00 0.000E+00 0.000E+00
BIGSUB   8        0    1.48726E+01    90.400     0.000    35.897    22.895    96.062     8.739     2.052     2.108     6.818     0.245     1.454     0.178     0.001     0.001     0.140     2.651     0.102     0.002 .00000E+00 0.000E+00 0.000E+00 0.000E+00 0.000E+00 0.000E+00
BIGSUB   9        0    1.53460E+01    90.400     0.000    35.917    23.267   123.664     9.909     2.718     2.413     5.357     0.191     0.474     0.058     0.000     0.001     0.091     0.219     0.008     0.001 .00000E+00 0.000E+00 0.000E+00 0.000E+00 0.000E+00 0.000E+00
BIGSUB  10        0    1.86796E+01    90.400     0.000    35.924    22.178   163.606     0.826     0.254     0.201     0.851     0.011     0.069     0.008     0.000     0.000     0.008     0.395     0.013     0.000 .00000E+00 0.000E+00 0.000E+00 0.000E+00 0.000E+00 0.000E+00
BIGSUB  11        0    1.37266E+02    90.400     0.000    35.924    21.286   180.339     1.350     0.446     0.329     0.976     0.025     0.128     0.016     0.000     0.000     0.016     0.200     0.008     0.000 .00000E+00 0.000E+00 0.000E+00 0.000E+00 0.000E+00 0.000E+00
BIGSUB  12        0    1.39177E+01    90.400     0.000    35.944    21.680   156.362     2.634     1.465     0.640     2.142     0.059     0.196     0.024     0.000     0.000     0.036     0.035     0.001     0.000 .00000E+00 0.000E+00 0.000E+00 0.000E+00 0.000E+00 0.000E+00
BIGSUB  13        0    1.47988E+01    90.400     0.000    35.976    21.220   166.241     0.982     1.100     0.237     1.347     0.036     0.136     0.017     0.000     0.000     0.025     0.008     0.000     0.000 .00000E+00 0.000E+00 0.000E+00 0.000E+00 0.000E+00 0.000E+00
BIGSUB  14        0    1.95265E+01    90.400     0.000    35.956    21.367   162.944     0.596     0.929     0.144     1.080     0.032     0.120     0.015     0.000     0.000     0.022     0.006     0.000     0.000 .00000E+00 0.000E+00 0.000E+00 0.000E+00 0.000E+00 0.000E+00
BIGSUB  15        0    1.36414E+01    90.400     0.000    35.899    22.600   108.470     6.192     1.536     1.493     5.045     0.198     1.124     0.138     0.001     0.000     0.110     2.011     0.076     0.001 .00000E+00 0.000E+00 0.000E+00 0.000E+00 0.000E+00 0.000E+00
BIGSUB  16        0    1.84042E+01    90.400     0.000    35.904    21.075   144.956     2.793     0.737     0.677     2.393     0.065     0.350     0.043     0.000     0.000     0.038     0.977     0.035     0.001 .00000E+00 0.000E+00 0.000E+00 0.000E+00 0.000E+00 0.000E+00
BIGSUB  17        0    1.49545E+01    90.400     0.000    35.991    22.309   151.080     4.197     1.597     1.021     2.721     0.052     0.180     0.022     0.000     0.000     0.033     0.100     0.003     0.001 .00000E+00 0.000E+00 0.000E+00 0.000E+00 0.000E+00 0.000E+00
BIGSUB  18        0    1.44775E+01    90.400     0.000    35.926    21.820   174.809     1.091     0.495     0.266     0.871     0.014     0.081     0.010     0.001     0.000     0.012     0.110     0.003     0.000 .00000E+00 0.000E+00 0.000E+00 0.000E+00 0.000E+00 0.000E+00
BIGSUB  19        0    1.80001E+01    90.400     0.000    36.091    24.443   109.345     9.092     3.585     2.209     5.952     0.267     0.701     0.086     0.001     0.001     0.133     0.152     0.006     0.001 .00000E+00 0.000E+00 0.000E+00 0.000E+00 0.000E+00 0.000E+00
BIGSUB  20        0    1.13406E+02    90.400     0.000    36.020    21.702   162.401     3.551     1.569     0.862     2.466     0.060     0.200     0.024     0.000     0.000     0.037     0.033     0.001     0.000 .00000E+00 0.000E+00 0.000E+00 0.000E+00 0.000E+00 0.000E+00
BIGSUB  21        0    1.21888E+01    90.400     0.000    35.894    23.131    94.539    10.001     1.842     2.419     6.214     0.279     1.544     0.189     0.000     0.001     0.146     1.945     0.073     0.002 .00000E+00 0.000E+00 0.000E+00 0.000E+00 0.000E+00 0.000E+00
BIGSUB  22        0    1.25155E+01    90.400     0.000    36.177    23.574   123.054    11.153     3.346     2.712     6.265     0.265     0.635     0.078     0.001     0.001     0.122     0.200     0.007     0.001 .00000E+00 0.000E+00 0.000E+00 0.000E+00 0.000E+00 0.000E+00
BIGSUB  23        0    1.17601E+02    90.400     0.000    35.929    21.701   154.586     2.524     0.644     0.615     1.635     0.037     0.229     0.028     0.000     0.000     0.025     0.374     0.015     0.001 .00000E+00 0.000E+00 0.000E+00 0.000E+00 0.000E+00 0.000E+00
BIGSUB  24        0    1.28026E+01    90.400     0.000    36.801    24.789   110.785    11.043     3.582     2.686     6.535     0.326     0.755     0.093     0.000     0.001     0.144     0.259     0.009     0.001 .00000E+00 0.000E+00 0.000E+00 0.000E+00 0.000E+00 0.000E+00
BIGSUB  25        0    1.13199E+02    90.400     0.000    35.938    21.754   168.804     0.334     1.258     0.081     1.360     0.064     0.227     0.028     0.001     0.000     0.041     0.021     0.001     0.000 .00000E+00 0.000E+00 0.000E+00 0.000E+00 0.000E+00 0.000E+00
BIGSUB  26        0    1.77202E+01    90.400     0.000    35.895    21.330   152.745     0.795     0.553     0.191     1.164     0.044     0.202     0.025     0.000     0.000     0.025     0.420     0.012     0.000 .00000E+00 0.000E+00 0.000E+00 0.000E+00 0.000E+00 0.000E+00
BIGSUB  27        0    1.52866E+01    90.400     0.000    35.912    22.184   134.392     3.605     0.710     0.876     2.869     0.070     0.396     0.049     0.000     0.000     0.040     1.281     0.049     0.001 .00000E+00 0.000E+00 0.000E+00 0.000E+00 0.000E+00 0.000E+00
BIGSUB  28        0    1.66735E+01    90.400     0.000    35.910    21.777   112.629     5.719     1.638     1.382     5.560     0.180     0.947     0.116     0.001     0.000     0.097     2.535     0.089     0.002 .00000E+00 0.000E+00 0.000E+00 0.000E+00 0.000E+00 0.000E+00
BIGSUB  29        0    1.53568E+01    90.400     0.000    36.015    22.432   139.474     6.425     2.034     1.563     3.857     0.141     0.378     0.046     0.000     0.001     0.069     0.255     0.009     0.001 .00000E+00 0.000E+00 0.000E+00 0.000E+00 0.000E+00 0.000E+00
BIGSUB  30        0    1.71964E+01    90.400     0.000    35.943    22.099   162.351     0.404     1.217     0.098     1.341     0.050     0.182     0.022     0.001     0.000     0.034     0.025     0.001     0.000 .00000E+00 0.000E+00 0.000E+00 0.000E+00 0.000E+00 0.000E+00
BIGSUB  31        0    1.10916E+02    90.400     0.000    35.905    22.781   131.197     4.067     1.531     0.987     3.025     0.114     0.452     0.055     0.000     0.000     0.061     0.504     0.021     0.001 .00000E+00 0.000E+00 0.000E+00 0.000E+00 0.000E+00 0.000E+00
BIGSUB  32        0    1.49482E+01    90.400     0.000    35.920    22.086   162.868     2.483     0.636     0.605     1.560     0.018     0.122     0.015     0.000     0.000     0.015     0.317     0.011     0.001 .00000E+00 0.000E+00 0.000E+00 0.000E+00 0.000E+00 0.000E+00
BIGSUB  33        0    1.62595E+01    90.400     0.000    35.929    22.849   110.206     9.077     1.925     2.212     5.791     0.092     0.502     0.062     0.000     0.001     0.058     1.647     0.057     0.003 .00000E+00 0.000E+00 0.000E+00 0.000E+00 0.000E+00 0.000E+00
BIGSUB  34        0    1.52668E+01    90.400     0.000    35.941    20.259   189.635     0.787     0.797     0.189     1.003     0.027     0.116     0.014     0.000     0.000     0.019     0.016     0.000     0.000 .00000E+00 0.000E+00 0.000E+00 0.000E+00 0.000E+00 0.000E+00
BIGSUB  35        0    1.58149E+01    90.400     0.000    35.946    21.925   160.982     0.703     1.523     0.171     1.710     0.062     0.228     0.028     0.001     0.000     0.042     0.016     0.001     0.000 .00000E+00 0.000E+00 0.000E+00 0.000E+00 0.000E+00 0.000E+00
BIGSUB  36        0    1.21843E+01    90.400     0.000    35.910    24.401    97.646    13.449     3.374     3.282     7.330     0.282     0.749     0.092     0.000     0.001     0.125     0.665     0.027     0.002 .00000E+00 0.000E+00 0.000E+00 0.000E+00 0.000E+00 0.000E+00
BIGSUB  37        0    1.92880E+01    90.400     0.000    35.909    21.986   133.030     5.201     1.120     1.273     2.982     0.044     0.300     0.037     0.001     0.000     0.034     0.585     0.022     0.002 .00000E+00 0.000E+00 0.000E+00 0.000E+00 0.000E+00 0.000E+00
BIGSUB  38        0    1.40320E+00    90.400     0.000    35.930    22.233   173.110     6.662     1.497     1.616     4.784     0.130     0.555     0.068     0.000     0.000     0.064     1.666     0.063     0.001 .00000E+00 0.000E+00 0.000E+00 0.000E+00 0.000E+00 0.000E+00
BIGSUB  39        0    1.51426E+01    90.400     0.000    35.934    21.722   171.357     0.448     0.675     0.109     0.866     0.038     0.138     0.017     0.000     0.000     0.023     0.082     0.003     0.000 .00000E+00 0.000E+00 0.000E+00 0.000E+00 0.000E+00 0.000E+00
BIGSUB  40        0    1.14094E+01    90.400     0.000    35.940    20.827   185.383     1.073     1.127     0.260     1.398     0.022     0.093     0.012     0.001     0.000     0.018     0.010     0.000     0.000 .00000E+00 0.000E+00 0.000E+00 0.000E+00 0.000E+00 0.000E+00
BIGSUB  41        0    1.49059E+01    90.400     0.000    35.913    22.426   104.680     8.651     2.077     2.086     6.546     0.313     1.719     0.211     0.001     0.001     0.165     2.377     0.084     0.002 .00000E+00 0.000E+00 0.000E+00 0.000E+00 0.000E+00 0.000E+00
BIGSUB  42        0    1.53550E+00    90.400     0.000    35.928    21.206   166.377     8.897     2.137     2.166     5.308     0.248     0.816     0.100     0.000     0.001     0.110     0.998     0.037     0.001 .00000E+00 0.000E+00 0.000E+00 0.000E+00 0.000E+00 0.000E+00
BIGSUB  43        0    1.42975E+01    90.400     0.000    35.932    22.669   137.121     6.524     1.434     1.590     4.374     0.096     0.511     0.063     0.000     0.000     0.058     1.346     0.050     0.002 .00000E+00 0.000E+00 0.000E+00 0.000E+00 0.000E+00 0.000E+00
BIGSUB  44        0    1.13779E+01    90.400     0.000    35.931    21.943   136.705     2.559     1.375     0.623     2.491     0.069     0.349     0.043     0.001     0.000     0.048     0.491     0.017     0.001 .00000E+00 0.000E+00 0.000E+00 0.000E+00 0.000E+00 0.000E+00
BIGSUB  45        0    1.38196E+01    90.400     0.000    35.943    20.384   214.771     0.296     0.353     0.072     0.453     0.015     0.049     0.006     0.000     0.000     0.010     0.028     0.001     0.000 .00000E+00 0.000E+00 0.000E+00 0.000E+00 0.000E+00 0.000E+00
BIGSUB  46        0    1.34290E+00    90.400     0.000    35.903    18.934   177.421     2.856     1.136     0.667     4.657     0.225     1.120     0.137     0.000     0.000     0.108     2.852     0.097     0.000 .00000E+00 0.000E+00 0.000E+00 0.000E+00 0.000E+00 0.000E+00
BIGSUB  47        0    1.15453E+01    90.400     0.000    35.910    21.669   140.665     4.499     1.126     1.080     5.755     0.174     0.917     0.112     0.001     0.000     0.091     3.546     0.126     0.001 .00000E+00 0.000E+00 0.000E+00 0.000E+00 0.000E+00 0.000E+00
BIGSUB  48        0    1.74862E+01    90.400     0.000    36.004    22.142   149.722     4.796     1.118     1.168     3.320     0.054     0.230     0.028     0.000     0.000     0.034     1.031     0.035     0.001 .00000E+00 0.000E+00 0.000E+00 0.000E+00 0.000E+00 0.000E+00
BIGSUB  49        0    1.83700E+00    90.400     0.000    35.930    21.295   136.986     3.760     1.835     0.908     4.866     0.079     0.456     0.056     0.002     0.001     0.061     2.120     0.071     0.001 .00000E+00 0.000E+00 0.000E+00 0.000E+00 0.000E+00 0.000E+00
BIGSUB  50        0    1.20913E+02    90.400     0.000    35.967    21.956   175.654     2.528     1.326     0.614     2.055     0.056     0.202     0.025     0.001     0.000     0.037     0.114     0.003     0.000 .00000E+00 0.000E+00 0.000E+00 0.000E+00 0.000E+00 0.000E+00
BIGSUB  51        0    1.43704E+01    90.400     0.000    35.900    22.163   109.402     9.107     1.756     2.204     5.926     0.268     1.476     0.181     0.000     0.001     0.141     1.959     0.069     0.002 .00000E+00 0.000E+00 0.000E+00 0.000E+00 0.000E+00 0.000E+00
BIGSUB  52        0    1.22449E+02    90.400     0.000    35.932    22.812   120.875     5.107     1.297     1.233     4.897     0.198     0.978     0.120     0.000     0.000     0.098     2.363     0.091     0.001 .00000E+00 0.000E+00 0.000E+00 0.000E+00 0.000E+00 0.000E+00
BIGSUB  53        0    1.13513E+02    90.400     0.000    35.927    22.075   146.596     2.977     0.778     0.724     2.468     0.043     0.184     0.023     0.000     0.000     0.026     0.963     0.031     0.001 .00000E+00 0.000E+00 0.000E+00 0.000E+00 0.000E+00 0.000E+00
BIGSUB  54        0    1.90270E+01    90.400     0.000    35.977    21.553   171.579     2.813     1.354     0.684     2.214     0.062     0.184     0.023     0.001     0.000     0.037     0.174     0.003     0.000 .00000E+00 0.000E+00 0.000E+00 0.000E+00 0.000E+00 0.000E+00
BIGSUB  55        0    1.42750E+01    90.400     0.000    35.905    22.038   108.644     8.104     1.606     1.960     6.789     0.204     1.152     0.141     0.000     0.000     0.110     3.218     0.115     0.002 .00000E+00 0.000E+00 0.000E+00 0.000E+00 0.000E+00 0.000E+00
BIGSUB  56        0    1.50850E+00    90.400     0.000    35.916    22.243   128.725     7.347     2.009     1.776     6.019     0.174     0.918     0.112     0.000     0.001     0.090     2.229     0.088     0.002 .00000E+00 0.000E+00 0.000E+00 0.000E+00 0.000E+00 0.000E+00
BIGSUB  57        0    1.23544E+01    90.400     0.000    35.932    23.400   128.066     7.566     1.594     1.849     4.264     0.152     0.494     0.060     0.000     0.000     0.072     0.815     0.029     0.002 .00000E+00 0.000E+00 0.000E+00 0.000E+00 0.000E+00 0.000E+00
BIGSUB  58        0    1.23490E+00    90.400     0.000    35.953    19.412   247.147     2.567     1.127     0.624     2.074     0.113     0.276     0.034     0.001     0.000     0.055     0.322     0.006     0.000 .00000E+00 0.000E+00 0.000E+00 0.000E+00 0.000E+00 0.000E+00
BIGSUB  59        0    1.10683E+01    90.400     0.000    35.906    21.551   126.309     7.065     1.724     1.702     7.274     0.224     1.265     0.155     0.000     0.000     0.120     3.843     0.137     0.002 .00000E+00 0.000E+00 0.000E+00 0.000E+00 0.000E+00 0.000E+00
BIGSUB  60        0    1.13680E+00    90.400     0.000    35.917    22.580   185.801     6.299     1.777     1.520     6.194     0.161     0.833     0.102     0.000     0.000     0.079     2.892     0.096     0.002 .00000E+00 0.000E+00 0.000E+00 0.000E+00 0.000E+00 0.000E+00
BIGSUB  61        0    1.27918E+01    90.400     0.000    35.933    23.205   112.518     9.526     2.046     2.325     5.558     0.153     0.615     0.075     0.000     0.001     0.082     1.179     0.041     0.002 .00000E+00 0.000E+00 0.000E+00 0.000E+00 0.000E+00 0.000E+00
BIGSUB  62        0    1.15489E+01    90.400     0.000    35.909    21.184   121.935     7.789     2.340     1.875     8.649     0.242     1.348     0.165     0.001     0.001     0.137     4.428     0.147     0.002 .00000E+00 0.000E+00 0.000E+00 0.000E+00 0.000E+00 0.000E+00
BIGSUB  63        0    1.62289E+01    90.400     0.000    35.920    22.799   123.737     9.460     2.266     2.304     5.755     0.165     0.661     0.081     0.000     0.001     0.085     1.178     0.045     0.002 .00000E+00 0.000E+00 0.000E+00 0.000E+00 0.000E+00 0.000E+00
BIGSUB  64        0    1.39510E+01    90.400     0.000    36.914    24.310   105.141    12.806     4.378     3.110     8.099     0.223     0.690     0.085     0.002     0.001     0.125     0.603     0.015     0.002 .00000E+00 0.000E+00 0.000E+00 0.000E+00 0.000E+00 0.000E+00
BIGSUB  65        0    1.95985E+01    90.400     0.000    35.954    22.932   116.703     9.334     1.979     2.285     5.287     0.154     0.504     0.062     0.000     0.001     0.076     1.016     0.036     0.002 .00000E+00 0.000E+00 0.000E+00 0.000E+00 0.000E+00 0.000E+00
BIGSUB  66        0    1.11034E+01    90.400     0.000    36.213    19.863   217.678     2.097     1.494     0.509     2.435     0.068     0.223     0.028     0.002     0.001     0.041     0.430     0.013     0.001 .00000E+00 0.000E+00 0.000E+00 0.000E+00 0.000E+00 0.000E+00
BIGSUB  67        0    1.69003E+01    90.400     0.000    36.096    21.219   175.820     4.880     1.647     1.184     3.161     0.146     0.359     0.044     0.000     0.000     0.066     0.326     0.011     0.001 .00000E+00 0.000E+00 0.000E+00 0.000E+00 0.000E+00 0.000E+00
BIGSUB  68        0    1.12861E+01    90.400     0.000    36.094    20.682   204.230     5.279     1.990     1.244     3.770     0.079     0.329     0.040     0.000     0.001     0.041     0.532     0.017     0.001 .00000E+00 0.000E+00 0.000E+00 0.000E+00 0.000E+00 0.000E+00
BIGSUB  69        0    1.24930E+00    90.400     0.000    35.952    20.262   236.191     3.538     1.042     0.836     2.042     0.019     0.207     0.025     0.000     0.000     0.019     0.161     0.001     0.000 .00000E+00 0.000E+00 0.000E+00 0.000E+00 0.000E+00 0.000E+00
BIGSUB   1        0    2.22436E+02    36.000     6.100    61.178    43.175   123.985     5.292     0.067     3.989     5.075     0.002     0.009     0.001     0.000     0.000     0.002     0.983     0.025     0.006 .00000E+00 0.000E+00 0.000E+00 0.000E+00 0.000E+00 0.000E+00
BIGSUB   2        0    2.92592E+01    36.000     6.100    61.187    43.324   146.557     2.775     0.035     2.421     3.618     0.001     0.005     0.001     0.000     0.000     0.001     1.138     0.029     0.004 .00000E+00 0.000E+00 0.000E+00 0.000E+00 0.000E+00 0.000E+00
BIGSUB   3        0    2.59202E+01    36.000     6.100    61.310    43.737   132.669     4.258     0.084     4.735     5.254     0.002     0.010     0.001     0.000     0.000     0.002     0.384     0.010     0.006 .00000E+00 0.000E+00 0.000E+00 0.000E+00 0.000E+00 0.000E+00
BIGSUB   4        0    2.63702E+01    36.000     6.100    61.212    44.900   160.677     1.021     0.059     0.834     1.187     0.002     0.009     0.001     0.000     0.000     0.002     0.286     0.007     0.001 .00000E+00 0.000E+00 0.000E+00 0.000E+00 0.000E+00 0.000E+00
BIGSUB   5        0    2.94950E+01    36.000     6.100    61.217    45.169   175.374     0.301     0.027     0.341     0.501     0.001     0.005     0.001     0.000     0.000     0.001     0.129     0.004     0.001 .00000E+00 0.000E+00 0.000E+00 0.000E+00 0.000E+00 0.000E+00
BIGSUB   6        0    2.85689E+01    36.000     6.100    61.242    42.544   148.757     3.878     0.103     3.032     3.216     0.002     0.011     0.001     0.000     0.000     0.002     0.053     0.003     0.003 .00000E+00 0.000E+00 0.000E+00 0.000E+00 0.000E+00 0.000E+00
BIGSUB   7        0    2.29949E+02    36.000     6.100    61.260    44.481   108.590     7.120     0.117     6.398     6.794     0.003     0.015     0.002     0.000     0.000     0.003     0.215     0.008     0.006 .00000E+00 0.000E+00 0.000E+00 0.000E+00 0.000E+00 0.000E+00
BIGSUB   8        0    2.48726E+01    36.000     6.100    61.188    40.800    80.705     7.874     0.074     8.219    12.910     0.002     0.017     0.002     0.000     0.000     0.002     4.529     0.120     0.014 .00000E+00 0.000E+00 0.000E+00 0.000E+00 0.000E+00 0.000E+00
BIGSUB   9        0    2.53460E+01    36.000     6.100    61.211    44.062   107.844     7.449     0.041     8.544     9.133     0.001     0.005     0.001     0.000     0.000     0.001     0.453     0.014     0.010 .00000E+00 0.000E+00 0.000E+00 0.000E+00 0.000E+00 0.000E+00
BIGSUB  10        0    2.86796E+01    36.000     6.100    61.215    45.320   152.897     0.959     0.015     0.885     1.622     0.000     0.002     0.000     0.000     0.000     0.000     0.714     0.017     0.002 .00000E+00 0.000E+00 0.000E+00 0.000E+00 0.000E+00 0.000E+00
BIGSUB  11        0    2.37266E+02    36.000     6.100    61.214    43.705   171.171     1.207     0.042     1.261     1.654     0.002     0.008     0.001     0.000     0.000     0.002     0.337     0.009     0.002 .00000E+00 0.000E+00 0.000E+00 0.000E+00 0.000E+00 0.000E+00
BIGSUB  12        0    2.39177E+01    36.000     6.100    61.235    43.166   145.069     4.006     0.054     3.305     3.477     0.001     0.005     0.001     0.000     0.000     0.001     0.087     0.004     0.003 .00000E+00 0.000E+00 0.000E+00 0.000E+00 0.000E+00 0.000E+00
BIGSUB  13        0    2.47988E+01    36.000     6.100    61.268    41.246   158.425     2.484     0.083     1.737     1.859     0.002     0.008     0.001     0.000     0.000     0.002     0.024     0.002     0.001 .00000E+00 0.000E+00 0.000E+00 0.000E+00 0.000E+00 0.000E+00
BIGSUB  14        0    2.95265E+01    36.000     6.100    61.243    40.828   156.016     2.000     0.079     1.304     1.414     0.002     0.008     0.001     0.000     0.000     0.002     0.020     0.001     0.001 .00000E+00 0.000E+00 0.000E+00 0.000E+00 0.000E+00 0.000E+00
BIGSUB  15        0    2.36414E+01    36.000     6.100    61.190    42.355    93.660     6.373     0.074     6.228     9.794     0.003     0.023     0.003     0.000     0.000     0.003     3.427     0.091     0.010 .00000E+00 0.000E+00 0.000E+00 0.000E+00 0.000E+00 0.000E+00
BIGSUB  16        0    2.84042E+01    36.000     6.100    61.192    42.065   133.780     4.187     0.005     3.473     5.061     0.000     0.001     0.000     0.000     0.000     0.000     1.550     0.039     0.006 .00000E+00 0.000E+00 0.000E+00 0.000E+00 0.000E+00 0.000E+00
BIGSUB  17        0    2.49545E+01    36.000     6.100    61.298    44.870   137.537     4.543     0.039     4.328     4.629     0.001     0.004     0.001     0.000     0.000     0.001     0.217     0.007     0.004 .00000E+00 0.000E+00 0.000E+00 0.000E+00 0.000E+00 0.000E+00
BIGSUB  18        0    2.44775E+01    36.000     6.100    61.214    45.072   164.537     0.968     0.067     1.016     1.349     0.002     0.010     0.001     0.000     0.000     0.002     0.255     0.006     0.002 .00000E+00 0.000E+00 0.000E+00 0.000E+00 0.000E+00 0.000E+00
BIGSUB  19        0    2.80001E+01    36.000     6.100    61.412    47.451    88.205     9.434     0.121     9.168     9.732     0.004     0.016     0.002     0.000     0.000     0.003     0.347     0.012     0.009 .00000E+00 0.000E+00 0.000E+00 0.000E+00 0.000E+00 0.000E+00
BIGSUB  20        0    2.13406E+02    36.000     6.100    61.324    41.986   152.383     3.973     0.061     3.728     3.908     0.001     0.006     0.001     0.000     0.000     0.001     0.080     0.003     0.004 .00000E+00 0.000E+00 0.000E+00 0.000E+00 0.000E+00 0.000E+00
BIGSUB  21        0    2.21888E+01    36.000     6.100    61.184    41.263    78.720     8.403     0.050     9.089    12.995     0.002     0.011     0.001     0.000     0.000     0.001     3.758     0.099     0.014 .00000E+00 0.000E+00 0.000E+00 0.000E+00 0.000E+00 0.000E+00
BIGSUB  22        0    2.25155E+01    36.000     6.100    61.524    43.121   107.306     8.472     0.100     9.664    10.308     0.003     0.010     0.001     0.000     0.000     0.002     0.437     0.013     0.011 .00000E+00 0.000E+00 0.000E+00 0.000E+00 0.000E+00 0.000E+00
BIGSUB  23        0    2.17601E+02    36.000     6.100    61.218    43.902   143.513     2.725     0.031     2.595     3.353     0.001     0.004     0.000     0.000     0.000     0.001     0.700     0.019     0.005 .00000E+00 0.000E+00 0.000E+00 0.000E+00 0.000E+00 0.000E+00
BIGSUB  24        0    2.28026E+01    36.000     6.100    62.264    45.920    91.327     9.775     0.074    10.276    11.006     0.002     0.009     0.001     0.000     0.000     0.002     0.546     0.017     0.011 .00000E+00 0.000E+00 0.000E+00 0.000E+00 0.000E+00 0.000E+00
BIGSUB  25        0    2.13199E+02    36.000     6.100    61.225    45.104   156.113     3.440     0.090     1.914     2.077     0.003     0.012     0.002     0.000     0.000     0.002     0.060     0.003     0.001 .00000E+00 0.000E+00 0.000E+00 0.000E+00 0.000E+00 0.000E+00
BIGSUB  26        0    2.77202E+01    36.000     6.100    61.183    44.373   141.027     2.970     0.049     1.894     2.507     0.002     0.007     0.001     0.000     0.000     0.001     0.549     0.013     0.001 .00000E+00 0.000E+00 0.000E+00 0.000E+00 0.000E+00 0.000E+00
BIGSUB  27        0    2.52866E+01    36.000     6.100    61.200    42.968   122.563     3.662     0.009     3.595     5.672     0.000     0.003     0.000     0.000     0.000     0.000     2.030     0.053     0.007 .00000E+00 0.000E+00 0.000E+00 0.000E+00 0.000E+00 0.000E+00
BIGSUB  28        0    2.66735E+01    36.000     6.100    61.199    41.599    97.751     7.268     0.074     6.451     9.784     0.004     0.025     0.003     0.000     0.000     0.003     3.196     0.080     0.011 .00000E+00 0.000E+00 0.000E+00 0.000E+00 0.000E+00 0.000E+00
BIGSUB  29        0    2.53568E+01    36.000     6.100    61.321    41.852   127.946     5.340     0.077     5.800     6.489     0.003     0.010     0.001     0.000     0.000     0.002     0.548     0.015     0.007 .00000E+00 0.000E+00 0.000E+00 0.000E+00 0.000E+00 0.000E+00
BIGSUB  30        0    2.71964E+01    36.000     6.100    61.230    45.256   150.054     2.883     0.104     1.662     1.844     0.002     0.012     0.001     0.000     0.000     0.002     0.066     0.003     0.001 .00000E+00 0.000E+00 0.000E+00 0.000E+00 0.000E+00 0.000E+00
BIGSUB  31        0    2.10916E+02    36.000     6.100    61.199    45.028   116.410     5.254     0.046     4.629     5.441     0.001     0.007     0.001     0.000     0.000     0.001     0.720     0.023     0.006 .00000E+00 0.000E+00 0.000E+00 0.000E+00 0.000E+00 0.000E+00
BIGSUB  32        0    2.49482E+01    36.000     6.100    61.212    45.211   151.152     2.146     0.018     2.282     2.881     0.001     0.003     0.000     0.000     0.000     0.001     0.557     0.013     0.005 .00000E+00 0.000E+00 0.000E+00 0.000E+00 0.000E+00 0.000E+00
BIGSUB  33        0    2.62595E+01    36.000     6.100    61.223    41.739    95.489     7.441     0.010     8.138    10.791     0.000     0.002     0.000     0.000     0.000     0.000     2.554     0.062     0.018 .00000E+00 0.000E+00 0.000E+00 0.000E+00 0.000E+00 0.000E+00
BIGSUB  34        0    2.52668E+01    36.000     6.100    61.237    40.348   183.161     2.030     0.060     1.414     1.527     0.001     0.005     0.001     0.000     0.000     0.001     0.041     0.001     0.001 .00000E+00 0.000E+00 0.000E+00 0.000E+00 0.000E+00 0.000E+00
BIGSUB  35        0    2.58149E+01    36.000     6.100    61.233    44.223   149.164     3.429     0.119     2.082     2.264     0.003     0.014     0.002     0.000     0.000     0.003     0.047     0.003     0.001 .00000E+00 0.000E+00 0.000E+00 0.000E+00 0.000E+00 0.000E+00
BIGSUB  36        0    2.21843E+01    36.000     6.100    61.204    45.736    77.215    10.129     0.043    11.601    12.643     0.001     0.005     0.001     0.000     0.000     0.001     0.869     0.029     0.013 .00000E+00 0.000E+00 0.000E+00 0.000E+00 0.000E+00 0.000E+00
BIGSUB  37        0    2.92880E+01    36.000     6.100    61.196    42.721   120.777     4.727     0.061     4.892     6.217     0.001     0.007     0.001     0.000     0.000     0.001     1.211     0.031     0.011 .00000E+00 0.000E+00 0.000E+00 0.000E+00 0.000E+00 0.000E+00
BIGSUB  38        0    2.40320E+00    36.000     6.100    61.226    40.739   161.231     5.694     0.012     6.102     8.689     0.000     0.002     0.000     0.000     0.000     0.000     2.509     0.066     0.008 .00000E+00 0.000E+00 0.000E+00 0.000E+00 0.000E+00 0.000E+00
BIGSUB  39        0    2.51426E+01    36.000     6.100    61.221    45.384   159.698     2.103     0.042     1.287     1.532     0.001     0.006     0.001     0.000     0.000     0.001     0.193     0.006     0.001 .00000E+00 0.000E+00 0.000E+00 0.000E+00 0.000E+00 0.000E+00
BIGSUB  40        0    2.14094E+01    36.000     6.100    61.229    40.350   179.023     1.854     0.133     1.459     1.631     0.003     0.013     0.002     0.000     0.000     0.003     0.026     0.001     0.001 .00000E+00 0.000E+00 0.000E+00 0.000E+00 0.000E+00 0.000E+00
BIGSUB  41        0    2.49059E+01    36.000     6.100    61.207    40.076    90.212     7.990     0.068     8.235    12.461     0.004     0.022     0.003     0.000     0.000     0.003     4.071     0.102     0.014 .00000E+00 0.000E+00 0.000E+00 0.000E+00 0.000E+00 0.000E+00
BIGSUB  42        0    2.53550E+00    36.000     6.100    61.224    40.786   153.844     6.959     0.022     7.812     9.291     0.001     0.005     0.001     0.000     0.000     0.001     1.371     0.038     0.008 .00000E+00 0.000E+00 0.000E+00 0.000E+00 0.000E+00 0.000E+00
BIGSUB  43        0    2.42975E+01    36.000     6.100    61.227    42.347   123.807     5.569     0.041     5.964     8.339     0.003     0.013     0.002     0.000     0.000     0.002     2.270     0.058     0.012 .00000E+00 0.000E+00 0.000E+00 0.000E+00 0.000E+00 0.000E+00
BIGSUB  44        0    2.13779E+01    36.000     6.100    61.220    41.477   126.389     4.039     0.106     3.286     4.539     0.004     0.019     0.002     0.000     0.000     0.003     1.116     0.029     0.006 .00000E+00 0.000E+00 0.000E+00 0.000E+00 0.000E+00 0.000E+00
BIGSUB  45        0    2.38196E+01    36.000     6.100    61.232    41.894   208.144     0.641     0.044     0.468     0.583     0.001     0.006     0.001     0.000     0.000     0.001     0.066     0.002     0.000 .00000E+00 0.000E+00 0.000E+00 0.000E+00 0.000E+00 0.000E+00
BIGSUB  46        0    2.34290E+00    36.000     6.100    61.194    34.231   172.443     5.015     0.016     3.947     6.713     0.001     0.011     0.001     0.000     0.000     0.001     2.714     0.059     0.003 .00000E+00 0.000E+00 0.000E+00 0.000E+00 0.000E+00 0.000E+00
BIGSUB  47        0    2.15453E+01    36.000     6.100    61.201    39.930   129.059     4.907     0.085     4.674     9.502     0.009     0.058     0.007     0.000     0.000     0.007     4.694     0.116     0.007 .00000E+00 0.000E+00 0.000E+00 0.000E+00 0.000E+00 0.000E+00
BIGSUB  48        0    2.74862E+01    36.000     6.100    61.314    42.468   138.214     3.987     0.036     4.330     6.371     0.001     0.006     0.001     0.000     0.000     0.001     1.958     0.046     0.007 .00000E+00 0.000E+00 0.000E+00 0.000E+00 0.000E+00 0.000E+00
BIGSUB  49        0    2.83700E+00    36.000     6.100    61.220    39.137   125.690     5.635     0.229     4.681     9.121     0.008     0.047     0.006     0.000     0.000     0.007     4.166     0.096     0.007 .00000E+00 0.000E+00 0.000E+00 0.000E+00 0.000E+00 0.000E+00
BIGSUB  50        0    2.20913E+02    36.000     6.100    61.265    44.121   164.584     2.684     0.136     2.579     2.971     0.005     0.020     0.003     0.000     0.000     0.004     0.229     0.006     0.003 .00000E+00 0.000E+00 0.000E+00 0.000E+00 0.000E+00 0.000E+00
BIGSUB  51        0    2.43704E+01    36.000     6.100    61.190    39.342    95.724     8.123     0.032     8.515    12.462     0.001     0.010     0.001     0.000     0.000     0.001     3.823     0.095     0.014 .00000E+00 0.000E+00 0.000E+00 0.000E+00 0.000E+00 0.000E+00
BIGSUB  52        0    2.22449E+02    36.000     6.100    61.229    43.529   105.177     6.190     0.037     5.613     9.062     0.002     0.012     0.001     0.000     0.000     0.002     3.356     0.090     0.008 .00000E+00 0.000E+00 0.000E+00 0.000E+00 0.000E+00 0.000E+00
BIGSUB  53        0    2.13513E+02    36.000     6.100    61.217    43.067   135.562     2.934     0.044     2.923     4.841     0.002     0.007     0.001     0.000     0.000     0.001     1.843     0.042     0.004 .00000E+00 0.000E+00 0.000E+00 0.000E+00 0.000E+00 0.000E+00
BIGSUB  54        0    2.90270E+01    36.000     6.100    61.277    42.674   162.413     2.203     0.156     2.472     2.896     0.007     0.022     0.003     0.000     0.000     0.005     0.241     0.006     0.003 .00000E+00 0.000E+00 0.000E+00 0.000E+00 0.000E+00 0.000E+00
BIGSUB  55        0    2.42750E+01    36.000     6.100    61.195    39.221    94.787     7.904     0.015     7.925    12.711     0.001     0.009     0.001     0.000     0.000     0.001     4.688     0.117     0.014 .00000E+00 0.000E+00 0.000E+00 0.000E+00 0.000E+00 0.000E+00
BIGSUB  56        0    2.50850E+00    36.000     6.100    61.211    41.377   113.750     8.219     0.011     7.716     9.762     0.001     0.007     0.001     0.000     0.000     0.001     1.956     0.062     0.015 .00000E+00 0.000E+00 0.000E+00 0.000E+00 0.000E+00 0.000E+00
BIGSUB  57        0    2.23544E+01    36.000     6.100    61.223    44.719   112.476     5.815     0.012     6.584     8.418     0.001     0.002     0.000     0.000     0.000     0.000     1.749     0.044     0.011 .00000E+00 0.000E+00 0.000E+00 0.000E+00 0.000E+00 0.000E+00
BIGSUB  58        0    2.23490E+00    36.000     6.100    61.250    37.820   242.859     2.013     0.107     2.257     2.984     0.014     0.037     0.005     0.000     0.000     0.008     0.595     0.008     0.002 .00000E+00 0.000E+00 0.000E+00 0.000E+00 0.000E+00 0.000E+00
BIGSUB  59        0    2.10683E+01    36.000     6.100    61.198    38.960   113.042     7.286     0.012     7.117    12.246     0.001     0.008     0.001     0.000     0.000     0.001     5.044     0.126     0.012 .00000E+00 0.000E+00 0.000E+00 0.000E+00 0.000E+00 0.000E+00
BIGSUB  60        0    2.13680E+00    36.000     6.100    61.213    39.099   175.708     5.098     0.014     5.626     8.525     0.001     0.006     0.001     0.000     0.000     0.001     2.824     0.071     0.012 .00000E+00 0.000E+00 0.000E+00 0.000E+00 0.000E+00 0.000E+00
BIGSUB  61        0    2.27918E+01    36.000     6.100    61.225    42.415    97.147     7.449     0.016     8.356    10.960     0.001     0.002     0.000     0.000     0.000     0.000     2.496     0.061     0.015 .00000E+00 0.000E+00 0.000E+00 0.000E+00 0.000E+00 0.000E+00
BIGSUB  62        0    2.15489E+01    36.000     6.100    61.201    38.390   108.660     7.814     0.114     7.733    12.926     0.012     0.053     0.007     0.000     0.000     0.007     4.999     0.114     0.015 .00000E+00 0.000E+00 0.000E+00 0.000E+00 0.000E+00 0.000E+00
BIGSUB  63        0    2.62289E+01    36.000     6.100    61.215    42.277   108.289     8.104     0.020     8.661    10.494     0.001     0.004     0.000     0.000     0.000     0.000     1.719     0.047     0.014 .00000E+00 0.000E+00 0.000E+00 0.000E+00 0.000E+00 0.000E+00
BIGSUB  64        0    2.39510E+01    36.000     6.100    62.401    44.218    86.835     9.921     0.317    11.198    12.649     0.011     0.043     0.005     0.000     0.000     0.008     1.011     0.024     0.014 .00000E+00 0.000E+00 0.000E+00 0.000E+00 0.000E+00 0.000E+00
BIGSUB  65        0    2.95985E+01    36.000     6.100    61.254    42.605   101.111     7.837     0.015     8.456    10.612     0.000     0.002     0.000     0.000     0.000     0.000     2.049     0.051     0.013 .00000E+00 0.000E+00 0.000E+00 0.000E+00 0.000E+00 0.000E+00
BIGSUB  66        0    2.11034E+01    36.000     6.100    61.563    38.947   212.674     1.646     0.276     1.845     2.769     0.011     0.041     0.005     0.001     0.000     0.008     0.628     0.014     0.004 .00000E+00 0.000E+00 0.000E+00 0.000E+00 0.000E+00 0.000E+00
BIGSUB  67        0    2.69003E+01    36.000     6.100    61.422    40.759   166.610     4.163     0.069     4.464     5.215     0.003     0.009     0.001     0.000     0.000     0.002     0.635     0.016     0.005 .00000E+00 0.000E+00 0.000E+00 0.000E+00 0.000E+00 0.000E+00
BIGSUB  68        0    2.12861E+01    36.000     6.100    61.419    39.465   195.767     4.618     0.094     4.915     5.715     0.001     0.009     0.001     0.000     0.000     0.001     0.654     0.015     0.005 .00000E+00 0.000E+00 0.000E+00 0.000E+00 0.000E+00 0.000E+00
BIGSUB  69        0    2.24930E+00    36.000     6.100    61.249    38.047   230.963     2.922     0.020     3.204     3.613     0.000     0.002     0.000     0.000     0.000     0.000     0.356     0.003     0.004 .00000E+00 0.000E+00 0.000E+00 0.000E+00 0.000E+00 0.000E+00
BIGSUB   1        0    3.22436E+02    52.500     1.800    89.114    50.983   124.769     0.000     0.094     2.044     2.817     0.003     0.011     0.001     0.000     0.000     0.002     0.605     0.009     0.002 .00000E+00 0.000E+00 0.000E+00 0.000E+00 0.000E+00 0.000E+00
BIGSUB   2        0    3.92592E+01    52.500     1.800    89.118    52.444   145.826     0.000     0.050     1.178     1.959     0.002     0.006     0.001     0.000     0.000     0.001     0.686     0.009     0.001 .00000E+00 0.000E+00 0.000E+00 0.000E+00 0.000E+00 0.000E+00
BIGSUB   3        0    3.59202E+01    52.500     1.800    89.226    52.280   132.671     0.000     0.098     2.142     2.575     0.004     0.012     0.002     0.000     0.000     0.002     0.246     0.005     0.002 .00000E+00 0.000E+00 0.000E+00 0.000E+00 0.000E+00 0.000E+00
BIGSUB   4        0    3.63702E+01    52.500     1.800    89.122    54.801   158.101     0.000     0.089     0.416     0.713     0.004     0.013     0.002     0.000     0.000     0.003     0.193     0.004     0.000 .00000E+00 0.000E+00 0.000E+00 0.000E+00 0.000E+00 0.000E+00
BIGSUB   5        0    3.94950E+01    52.500     1.800    89.131    55.629   172.120     0.000     0.041     0.154     0.290     0.003     0.008     0.001     0.000     0.000     0.001     0.088     0.002     0.000 .00000E+00 0.000E+00 0.000E+00 0.000E+00 0.000E+00 0.000E+00
BIGSUB   6        0    3.85689E+01    52.500     1.800    89.144    51.422   149.749     0.000     0.066     1.532     1.689     0.002     0.005     0.001     0.000     0.000     0.001     0.036     0.002     0.001 .00000E+00 0.000E+00 0.000E+00 0.000E+00 0.000E+00 0.000E+00
BIGSUB   7        0    3.29949E+02    52.500     1.800    89.146    51.527   109.395     0.000     0.067     3.082     3.403     0.003     0.007     0.001     0.000     0.000     0.002     0.134     0.004     0.002 .00000E+00 0.000E+00 0.000E+00 0.000E+00 0.000E+00 0.000E+00
BIGSUB   8        0    3.48726E+01    52.500     1.800    89.105    47.024    83.165     0.000     0.094     3.778     6.741     0.002     0.010     0.001     0.000     0.000     0.001     2.714     0.039     0.004 .00000E+00 0.000E+00 0.000E+00 0.000E+00 0.000E+00 0.000E+00
BIGSUB   9        0    3.53460E+01    52.500     1.800    89.097    51.088   109.011     0.000     0.001     3.832     4.252     0.000     0.000     0.000     0.000     0.000     0.000     0.258     0.005     0.003 .00000E+00 0.000E+00 0.000E+00 0.000E+00 0.000E+00 0.000E+00
BIGSUB  10        0    3.86796E+01    52.500     1.800    89.111    54.978   149.938     0.000     0.021     0.423     0.908     0.001     0.002     0.000     0.000     0.000     0.000     0.448     0.007     0.000 .00000E+00 0.000E+00 0.000E+00 0.000E+00 0.000E+00 0.000E+00
BIGSUB  11        0    3.37266E+02    52.500     1.800    89.130    53.845   169.542     0.000     0.064     0.581     0.893     0.004     0.011     0.001     0.000     0.000     0.002     0.225     0.004     0.001 .00000E+00 0.000E+00 0.000E+00 0.000E+00 0.000E+00 0.000E+00
BIGSUB  12        0    3.39177E+01    52.500     1.800    89.121    51.996   145.505     0.000     0.019     1.636     1.776     0.000     0.001     0.000     0.000     0.000     0.000     0.059     0.002     0.001 .00000E+00 0.000E+00 0.000E+00 0.000E+00 0.000E+00 0.000E+00
BIGSUB  13        0    3.47988E+01    52.500     1.800    89.178    50.810   160.077     0.000     0.064     0.913     1.028     0.001     0.005     0.001     0.000     0.000     0.001     0.018     0.001     0.000 .00000E+00 0.000E+00 0.000E+00 0.000E+00 0.000E+00 0.000E+00
BIGSUB  14        0    3.95265E+01    52.500     1.800    89.141    50.451   157.985     0.000     0.069     0.705     0.812     0.001     0.005     0.001     0.000     0.000     0.001     0.015     0.001     0.000 .00000E+00 0.000E+00 0.000E+00 0.000E+00 0.000E+00 0.000E+00
BIGSUB  15        0    3.36414E+01    52.500     1.800    89.105    49.195    94.623     0.000     0.102     2.919     5.265     0.004     0.024     0.003     0.000     0.000     0.003     2.126     0.033     0.003 .00000E+00 0.000E+00 0.000E+00 0.000E+00 0.000E+00 0.000E+00
BIGSUB  16        0    3.84042E+01    52.500     1.800    89.118    50.524   134.725     0.000     0.002     1.718     2.745     0.000     0.000     0.000     0.000     0.000     0.000     0.960     0.013     0.002 .00000E+00 0.000E+00 0.000E+00 0.000E+00 0.000E+00 0.000E+00
BIGSUB  17        0    3.49545E+01    52.500     1.800    89.204    53.407   136.584     0.000     0.011     2.046     2.275     0.001     0.002     0.000     0.000     0.000     0.000     0.137     0.003     0.001 .00000E+00 0.000E+00 0.000E+00 0.000E+00 0.000E+00 0.000E+00
BIGSUB  18        0    3.44775E+01    52.500     1.800    89.126    55.109   161.645     0.000     0.104     0.468     0.771     0.005     0.014     0.002     0.000     0.000     0.003     0.180     0.003     0.001 .00000E+00 0.000E+00 0.000E+00 0.000E+00 0.000E+00 0.000E+00
BIGSUB  19        0    3.80001E+01    52.500     1.800    89.365    53.276    87.386     0.000     0.074     4.309     4.772     0.003     0.009     0.001     0.000     0.000     0.002     0.217     0.006     0.003 .00000E+00 0.000E+00 0.000E+00 0.000E+00 0.000E+00 0.000E+00
BIGSUB  20        0    3.13406E+02    52.500     1.800    89.249    50.980   153.942     0.000     0.031     1.771     1.925     0.001     0.003     0.000     0.000     0.000     0.001     0.053     0.002     0.001 .00000E+00 0.000E+00 0.000E+00 0.000E+00 0.000E+00 0.000E+00
BIGSUB  21        0    3.21888E+01    52.500     1.800    89.106    47.436    81.349     0.000     0.061     4.138     6.643     0.001     0.003     0.000     0.000     0.000     0.001     2.273     0.037     0.004 .00000E+00 0.000E+00 0.000E+00 0.000E+00 0.000E+00 0.000E+00
BIGSUB  22        0    3.25155E+01    52.500     1.800    89.541    49.900   110.018     0.000     0.079     4.340     4.866     0.001     0.004     0.001     0.000     0.000     0.001     0.264     0.006     0.003 .00000E+00 0.000E+00 0.000E+00 0.000E+00 0.000E+00 0.000E+00
BIGSUB  23        0    3.17601E+02    52.500     1.800    89.155    53.067   142.464     0.000     0.040     1.230     1.770     0.001     0.004     0.000     0.000     0.000     0.001     0.452     0.008     0.001 .00000E+00 0.000E+00 0.000E+00 0.000E+00 0.000E+00 0.000E+00
BIGSUB  24        0    3.28026E+01    52.500     1.800    90.613    52.413    92.532     0.000     0.011     4.719     5.241     0.000     0.000     0.000     0.000     0.000     0.000     0.317     0.007     0.003 .00000E+00 0.000E+00 0.000E+00 0.000E+00 0.000E+00 0.000E+00
BIGSUB  25        0    3.13199E+02    52.500     1.800    89.131    54.068   154.430     0.000     0.083     1.101     1.263     0.003     0.010     0.001     0.000     0.000     0.002     0.043     0.002     0.000 .00000E+00 0.000E+00 0.000E+00 0.000E+00 0.000E+00 0.000E+00
BIGSUB  26        0    3.77202E+01    52.500     1.800    89.116    53.194   139.910     0.000     0.074     1.033     1.458     0.003     0.009     0.001     0.000     0.000     0.002     0.317     0.004     0.000 .00000E+00 0.000E+00 0.000E+00 0.000E+00 0.000E+00 0.000E+00
BIGSUB  27        0    3.52866E+01    52.500     1.800    89.119    51.276   122.458     0.000     0.009     1.684     3.004     0.000     0.001     0.000     0.000     0.000     0.000     1.242     0.018     0.002 .00000E+00 0.000E+00 0.000E+00 0.000E+00 0.000E+00 0.000E+00
BIGSUB  28        0    3.66735E+01    52.500     1.800    89.114    48.215    99.801     0.000     0.100     3.119     5.259     0.006     0.028     0.003     0.000     0.000     0.004     1.918     0.022     0.003 .00000E+00 0.000E+00 0.000E+00 0.000E+00 0.000E+00 0.000E+00
BIGSUB  29        0    3.53568E+01    52.500     1.800    89.264    49.972   130.202     0.000     0.068     2.640     3.166     0.004     0.009     0.001     0.000     0.000     0.002     0.348     0.007     0.002 .00000E+00 0.000E+00 0.000E+00 0.000E+00 0.000E+00 0.000E+00
BIGSUB  30        0    3.71964E+01    52.500     1.800    89.134    54.243   148.176     0.000     0.098     0.943     1.117     0.003     0.009     0.001     0.000     0.000     0.002     0.046     0.002     0.000 .00000E+00 0.000E+00 0.000E+00 0.000E+00 0.000E+00 0.000E+00
BIGSUB  31        0    3.10916E+02    52.500     1.800    89.098    52.753   115.668     0.000     0.032     2.243     2.796     0.001     0.003     0.000     0.000     0.000     0.001     0.435     0.008     0.002 .00000E+00 0.000E+00 0.000E+00 0.000E+00 0.000E+00 0.000E+00
BIGSUB  32        0    3.49482E+01    52.500     1.800    89.107    54.647   148.602     0.000     0.022     1.046     1.477     0.001     0.004     0.000     0.000     0.000     0.001     0.366     0.006     0.001 .00000E+00 0.000E+00 0.000E+00 0.000E+00 0.000E+00 0.000E+00
BIGSUB  33        0    3.62595E+01    52.500     1.800    89.105    48.563    97.723     0.000     0.000     3.698     5.437     0.000     0.000     0.000     0.000     0.000     0.000     1.585     0.022     0.005 .00000E+00 0.000E+00 0.000E+00 0.000E+00 0.000E+00 0.000E+00
BIGSUB  34        0    3.52668E+01    52.500     1.800    89.102    50.711   184.854     0.000     0.068     0.743     0.868     0.001     0.004     0.001     0.000     0.000     0.001     0.031     0.001     0.000 .00000E+00 0.000E+00 0.000E+00 0.000E+00 0.000E+00 0.000E+00
BIGSUB  35        0    3.58149E+01    52.500     1.800    89.135    52.966   148.584     0.000     0.088     1.158     1.320     0.002     0.008     0.001     0.000     0.000     0.002     0.036     0.002     0.000 .00000E+00 0.000E+00 0.000E+00 0.000E+00 0.000E+00 0.000E+00
BIGSUB  36        0    3.21843E+01    52.500     1.800    89.097    51.284    77.958     0.000     0.000     5.205     5.871     0.000     0.000     0.000     0.000     0.000     0.000     0.447     0.007     0.004 .00000E+00 0.000E+00 0.000E+00 0.000E+00 0.000E+00 0.000E+00
BIGSUB  37        0    3.92880E+01    52.500     1.800    89.123    50.925   121.417     0.000     0.091     2.262     3.269     0.002     0.010     0.001     0.000     0.000     0.002     0.824     0.014     0.003 .00000E+00 0.000E+00 0.000E+00 0.000E+00 0.000E+00 0.000E+00
BIGSUB  38        0    3.40320E+00    52.500     1.800    89.097    48.626   163.580     0.000     0.000     2.784     4.294     0.000     0.000     0.000     0.000     0.000     0.000     1.395     0.017     0.002 .00000E+00 0.000E+00 0.000E+00 0.000E+00 0.000E+00 0.000E+00
BIGSUB  39        0    3.51426E+01    52.500     1.800    89.133    54.951   157.081     0.000     0.045     0.711     0.910     0.002     0.005     0.001     0.000     0.000     0.001     0.131     0.003     0.000 .00000E+00 0.000E+00 0.000E+00 0.000E+00 0.000E+00 0.000E+00
BIGSUB  40        0    3.14094E+01    52.500     1.800    89.125    50.327   181.018     0.000     0.162     0.736     0.944     0.005     0.016     0.002     0.000     0.000     0.003     0.020     0.001     0.000 .00000E+00 0.000E+00 0.000E+00 0.000E+00 0.000E+00 0.000E+00
BIGSUB  41        0    3.49059E+01    52.500     1.800    89.139    46.607    93.384     0.000     0.084     3.800     6.530     0.004     0.013     0.002     0.000     0.000     0.002     2.492     0.036     0.004 .00000E+00 0.000E+00 0.000E+00 0.000E+00 0.000E+00 0.000E+00
BIGSUB  42        0    3.53550E+00    52.500     1.800    89.096    49.208   156.378     0.000     0.000     3.522     4.323     0.000     0.000     0.000     0.000     0.000     0.000     0.654     0.007     0.002 .00000E+00 0.000E+00 0.000E+00 0.000E+00 0.000E+00 0.000E+00
BIGSUB  43        0    3.42975E+01    52.500     1.800    89.101    50.013   124.736     0.000     0.054     2.725     4.300     0.005     0.016     0.002     0.000     0.000     0.002     1.408     0.021     0.003 .00000E+00 0.000E+00 0.000E+00 0.000E+00 0.000E+00 0.000E+00
BIGSUB  44        0    3.13779E+01    52.500     1.800    89.126    49.932   128.055     0.000     0.133     1.634     2.600     0.006     0.023     0.003     0.000     0.000     0.004     0.772     0.014     0.002 .00000E+00 0.000E+00 0.000E+00 0.000E+00 0.000E+00 0.000E+00
BIGSUB  45        0    3.38196E+01    52.500     1.800    89.125    52.740   207.802     0.000     0.062     0.242     0.356     0.003     0.007     0.001     0.000     0.000     0.002     0.044     0.001     0.000 .00000E+00 0.000E+00 0.000E+00 0.000E+00 0.000E+00 0.000E+00
BIGSUB  46        0    3.34290E+00    52.500     1.800    89.105    43.347   179.724     0.000     0.001     1.983     3.662     0.000     0.000     0.000     0.000     0.000     0.000     1.606     0.008     0.001 .00000E+00 0.000E+00 0.000E+00 0.000E+00 0.000E+00 0.000E+00
BIGSUB  47        0    3.15453E+01    52.500     1.800    89.108    47.747   130.724     0.000     0.125     2.203     5.074     0.017     0.074     0.009     0.000     0.000     0.009     2.658     0.029     0.002 .00000E+00 0.000E+00 0.000E+00 0.000E+00 0.000E+00 0.000E+00
BIGSUB  48        0    3.74862E+01    52.500     1.800    89.221    50.990   138.564     0.000     0.038     1.970     3.276     0.002     0.007     0.001     0.000     0.000     0.001     1.186     0.017     0.002 .00000E+00 0.000E+00 0.000E+00 0.000E+00 0.000E+00 0.000E+00
BIGSUB  49        0    3.83700E+00    52.500     1.800    89.121    46.501   128.689     0.000     0.330     2.310     5.278     0.014     0.063     0.008     0.001     0.000     0.009     2.550     0.037     0.002 .00000E+00 0.000E+00 0.000E+00 0.000E+00 0.000E+00 0.000E+00
BIGSUB  50        0    3.20913E+02    52.500     1.800    89.163    53.371   163.419     0.000     0.185     1.217     1.610     0.008     0.026     0.003     0.000     0.000     0.005     0.159     0.003     0.001 .00000E+00 0.000E+00 0.000E+00 0.000E+00 0.000E+00 0.000E+00
BIGSUB  51        0    3.43704E+01    52.500     1.800    89.107    46.067    99.628     0.000     0.033     3.912     6.497     0.001     0.003     0.000     0.000     0.000     0.001     2.391     0.037     0.004 .00000E+00 0.000E+00 0.000E+00 0.000E+00 0.000E+00 0.000E+00
BIGSUB  52        0    3.22449E+02    52.500     1.800    89.146    50.372   105.170     0.000     0.039     2.691     4.800     0.002     0.009     0.001     0.000     0.000     0.001     1.965     0.026     0.002 .00000E+00 0.000E+00 0.000E+00 0.000E+00 0.000E+00 0.000E+00
BIGSUB  53        0    3.13513E+02    52.500     1.800    89.117    51.848   135.017     0.000     0.057     1.363     2.556     0.003     0.008     0.001     0.000     0.000     0.002     1.081     0.015     0.001 .00000E+00 0.000E+00 0.000E+00 0.000E+00 0.000E+00 0.000E+00
BIGSUB  54        0    3.90270E+01    52.500     1.800    89.175    52.264   162.316     0.000     0.226     1.115     1.560     0.013     0.030     0.004     0.001     0.000     0.007     0.172     0.003     0.001 .00000E+00 0.000E+00 0.000E+00 0.000E+00 0.000E+00 0.000E+00
BIGSUB  55        0    3.42750E+01    52.500     1.800    89.108    45.745    98.494     0.000     0.009     3.686     6.628     0.001     0.004     0.001     0.000     0.000     0.001     2.783     0.035     0.004 .00000E+00 0.000E+00 0.000E+00 0.000E+00 0.000E+00 0.000E+00
BIGSUB  56        0    3.50850E+00    52.500     1.800    89.097    47.748   117.160     0.000     0.000     3.667     4.945     0.000     0.000     0.000     0.000     0.000     0.000     1.133     0.009     0.004 .00000E+00 0.000E+00 0.000E+00 0.000E+00 0.000E+00 0.000E+00
BIGSUB  57        0    3.23544E+01    52.500     1.800    89.114    52.142   111.665     0.000     0.000     2.964     4.236     0.000     0.000     0.000     0.000     0.000     0.000     1.148     0.020     0.003 .00000E+00 0.000E+00 0.000E+00 0.000E+00 0.000E+00 0.000E+00
BIGSUB  58        0    3.23490E+00    52.500     1.800    89.104    49.008   245.810     0.000     0.146     1.018     1.557     0.026     0.048     0.006     0.000     0.000     0.010     0.350     0.003     0.001 .00000E+00 0.000E+00 0.000E+00 0.000E+00 0.000E+00 0.000E+00
BIGSUB  59        0    3.10683E+01    52.500     1.800    89.105    45.934   116.275     0.000     0.000     3.334     6.479     0.000     0.000     0.000     0.000     0.000     0.000     3.011     0.033     0.003 .00000E+00 0.000E+00 0.000E+00 0.000E+00 0.000E+00 0.000E+00
BIGSUB  60        0    3.13680E+00    52.500     1.800    89.094    46.811   179.503     0.000     0.001     2.549     4.431     0.000     0.000     0.000     0.000     0.000     0.000     1.775     0.014     0.003 .00000E+00 0.000E+00 0.000E+00 0.000E+00 0.000E+00 0.000E+00
BIGSUB  61        0    3.27918E+01    52.500     1.800    89.111    49.106    98.864     0.000     0.000     3.771     5.573     0.000     0.000     0.000     0.000     0.000     0.000     1.644     0.027     0.004 .00000E+00 0.000E+00 0.000E+00 0.000E+00 0.000E+00 0.000E+00
BIGSUB  62        0    3.15489E+01    52.500     1.800    89.105    45.354   112.334     0.000     0.157     3.611     6.741     0.020     0.060     0.007     0.000     0.000     0.009     2.827     0.023     0.004 .00000E+00 0.000E+00 0.000E+00 0.000E+00 0.000E+00 0.000E+00
BIGSUB  63        0    3.62289E+01    52.500     1.800    89.106    48.903   110.779     0.000     0.000     3.961     5.170     0.000     0.000     0.000     0.000     0.000     0.000     1.045     0.015     0.004 .00000E+00 0.000E+00 0.000E+00 0.000E+00 0.000E+00 0.000E+00
BIGSUB  64        0    3.39510E+01    52.500     1.800    90.783    50.948    88.917     0.000     0.425     5.044     6.395     0.019     0.053     0.007     0.000     0.000     0.010     0.714     0.011     0.004 .00000E+00 0.000E+00 0.000E+00 0.000E+00 0.000E+00 0.000E+00
BIGSUB  65        0    3.95985E+01    52.500     1.800    89.154    49.221   103.150     0.000     0.000     3.858     5.271     0.000     0.000     0.000     0.000     0.000     0.000     1.253     0.020     0.004 .00000E+00 0.000E+00 0.000E+00 0.000E+00 0.000E+00 0.000E+00
BIGSUB  66        0    3.11034E+01    52.500     1.800    89.571    50.133   214.649     0.000     0.434     0.833     1.688     0.021     0.057     0.007     0.001     0.000     0.011     0.387     0.004     0.001 .00000E+00 0.000E+00 0.000E+00 0.000E+00 0.000E+00 0.000E+00
BIGSUB  67        0    3.69003E+01    52.500     1.800    89.369    50.109   168.817     0.000     0.072     2.038     2.554     0.003     0.008     0.001     0.000     0.000     0.002     0.360     0.006     0.001 .00000E+00 0.000E+00 0.000E+00 0.000E+00 0.000E+00 0.000E+00
BIGSUB  68        0    3.12861E+01    52.500     1.800    89.352    49.220   198.824     0.000     0.049     2.245     2.762     0.001     0.003     0.000     0.000     0.000     0.000     0.376     0.004     0.002 .00000E+00 0.000E+00 0.000E+00 0.000E+00 0.000E+00 0.000E+00
BIGSUB  69        0    3.24930E+00    52.500     1.800    89.103    48.582   234.590     0.000     0.002     1.452     1.776     0.000     0.000     0.000     0.000     0.000     0.000     0.262     0.002     0.001 .00000E+00 0.000E+00 0.000E+00 0.000E+00 0.000E+00 0.000E+00
BIGSUB   1        0    4.22436E+02    67.800     0.000   127.277    71.903   119.101     0.046     0.573     0.639     2.058     0.011     0.042     0.005     0.024     0.000     0.008     0.779     0.005     0.000 .00000E+00 0.000E+00 0.000E+00 0.000E+00 0.000E+00 0.000E+00
BIGSUB   2        0    4.92592E+01    67.800     0.000   127.284    73.458   138.867     0.000     0.230     0.356     1.531     0.005     0.023     0.003     0.006     0.000     0.003     0.904     0.004     0.000 .00000E+00 0.000E+00 0.000E+00 0.000E+00 0.000E+00 0.000E+00
BIGSUB   3        0    4.59202E+01    67.800     0.000   127.470    73.575   126.208     0.007     0.439     0.651     1.465     0.005     0.019     0.002     0.016     0.000     0.004     0.295     0.002     0.000 .00000E+00 0.000E+00 0.000E+00 0.000E+00 0.000E+00 0.000E+00
BIGSUB   4        0    4.63702E+01    67.800     0.000   127.320    75.699   149.662     0.000     0.250     0.126     0.619     0.005     0.016     0.002     0.009     0.000     0.003     0.229     0.002     0.000 .00000E+00 0.000E+00 0.000E+00 0.000E+00 0.000E+00 0.000E+00
BIGSUB   5        0    4.94950E+01    67.800     0.000   127.316    75.976   163.688     0.030     0.092     0.060     0.262     0.001     0.005     0.001     0.002     0.000     0.001     0.103     0.001     0.000 .00000E+00 0.000E+00 0.000E+00 0.000E+00 0.000E+00 0.000E+00
BIGSUB   6        0    4.85689E+01    67.800     0.000   127.348    68.553   148.283     0.000     0.629     0.463     1.182     0.013     0.049     0.006     0.076     0.000     0.009     0.038     0.001     0.000 .00000E+00 0.000E+00 0.000E+00 0.000E+00 0.000E+00 0.000E+00
BIGSUB   7        0    4.29949E+02    67.800     0.000   127.385    69.688   106.488     0.000     0.808     0.931     2.001     0.018     0.066     0.008     0.058     0.000     0.012     0.154     0.002     0.000 .00000E+00 0.000E+00 0.000E+00 0.000E+00 0.000E+00 0.000E+00
BIGSUB   8        0    4.48726E+01    67.800     0.000   127.301    66.944    79.470     0.000     0.385     1.142     5.228     0.012     0.076     0.009     0.030     0.000     0.007     3.562     0.019     0.000 .00000E+00 0.000E+00 0.000E+00 0.000E+00 0.000E+00 0.000E+00
BIGSUB   9        0    4.53460E+01    67.800     0.000   127.348    71.962   103.983     0.000     0.495     1.158     2.108     0.011     0.032     0.004     0.000     0.000     0.006     0.312     0.002     0.000 .00000E+00 0.000E+00 0.000E+00 0.000E+00 0.000E+00 0.000E+00
BIGSUB  10        0    4.86796E+01    67.800     0.000   127.336    75.845   141.143     0.000     0.073     0.128     0.781     0.001     0.003     0.000     0.003     0.000     0.001     0.566     0.003     0.000 .00000E+00 0.000E+00 0.000E+00 0.000E+00 0.000E+00 0.000E+00
BIGSUB  11        0    4.37266E+02    67.800     0.000   127.326    74.545   162.300     0.002     0.161     0.176     0.639     0.002     0.011     0.001     0.005     0.000     0.002     0.281     0.002     0.000 .00000E+00 0.000E+00 0.000E+00 0.000E+00 0.000E+00 0.000E+00
BIGSUB  12        0    4.39177E+01    67.800     0.000   127.355    71.130   141.642     0.000     0.434     0.495     1.049     0.008     0.029     0.004     0.030     0.000     0.005     0.064     0.001     0.000 .00000E+00 0.000E+00 0.000E+00 0.000E+00 0.000E+00 0.000E+00
BIGSUB  13        0    4.47988E+01    67.800     0.000   127.378    67.545   159.855     0.000     0.465     0.276     0.789     0.009     0.034     0.004     0.051     0.000     0.006     0.019     0.001     0.000 .00000E+00 0.000E+00 0.000E+00 0.000E+00 0.000E+00 0.000E+00
BIGSUB  14        0    4.95265E+01    67.800     0.000   127.343    66.930   158.381     0.000     0.420     0.213     0.670     0.008     0.030     0.004     0.052     0.000     0.005     0.015     0.001     0.000 .00000E+00 0.000E+00 0.000E+00 0.000E+00 0.000E+00 0.000E+00
BIGSUB  15        0    4.36414E+01    67.800     0.000   127.305    69.723    89.130     0.000     0.373     0.882     4.081     0.012     0.071     0.009     0.028     0.000     0.007     2.720     0.016     0.000 .00000E+00 0.000E+00 0.000E+00 0.000E+00 0.000E+00 0.000E+00
BIGSUB  16        0    4.84042E+01    67.800     0.000   127.291    71.215   129.602     0.000     0.231     0.519     2.060     0.007     0.024     0.003     0.000     0.000     0.004     1.250     0.006     0.000 .00000E+00 0.000E+00 0.000E+00 0.000E+00 0.000E+00 0.000E+00
BIGSUB  17        0    4.49545E+01    67.800     0.000   127.457    73.670   130.231     0.000     0.372     0.618     1.227     0.004     0.017     0.002     0.008     0.000     0.003     0.163     0.001     0.000 .00000E+00 0.000E+00 0.000E+00 0.000E+00 0.000E+00 0.000E+00
BIGSUB  18        0    4.44775E+01    67.800     0.000   127.317    75.032   153.881     0.032     0.226     0.156     0.614     0.003     0.010     0.001     0.019     0.000     0.002     0.215     0.002     0.000 .00000E+00 0.000E+00 0.000E+00 0.000E+00 0.000E+00 0.000E+00
BIGSUB  19        0    4.80001E+01    67.800     0.000   127.580    72.901    81.303     0.000     0.903     1.302     2.608     0.021     0.068     0.008     0.045     0.000     0.013     0.248     0.003     0.000 .00000E+00 0.000E+00 0.000E+00 0.000E+00 0.000E+00 0.000E+00
BIGSUB  20        0    4.13406E+02    67.800     0.000   127.458    68.870   152.454     0.000     0.451     0.535     1.108     0.008     0.028     0.003     0.029     0.000     0.005     0.059     0.001     0.000 .00000E+00 0.000E+00 0.000E+00 0.000E+00 0.000E+00 0.000E+00
BIGSUB  21        0    4.21888E+01    67.800     0.000   127.294    67.929    77.501     0.000     0.330     1.251     4.621     0.012     0.073     0.009     0.021     0.000     0.007     2.887     0.016     0.000 .00000E+00 0.000E+00 0.000E+00 0.000E+00 0.000E+00 0.000E+00
BIGSUB  22        0    4.25155E+01    67.800     0.000   127.730    70.556   106.615     0.000     0.730     1.312     2.514     0.016     0.046     0.006     0.029     0.000     0.009     0.310     0.002     0.000 .00000E+00 0.000E+00 0.000E+00 0.000E+00 0.000E+00 0.000E+00
BIGSUB  23        0    4.17601E+02    67.800     0.000   127.314    73.967   135.406     0.001     0.221     0.372     1.205     0.004     0.015     0.002     0.007     0.000     0.003     0.568     0.004     0.000 .00000E+00 0.000E+00 0.000E+00 0.000E+00 0.000E+00 0.000E+00
BIGSUB  24        0    4.28026E+01    67.800     0.000   128.609    72.259    88.371     0.000     0.754     1.426     2.731     0.021     0.060     0.007     0.016     0.000     0.011     0.378     0.003     0.000 .00000E+00 0.000E+00 0.000E+00 0.000E+00 0.000E+00 0.000E+00
BIGSUB  25        0    4.13199E+02    67.800     0.000   127.328    72.419   149.220     0.000     0.503     0.333     0.914     0.010     0.039     0.005     0.043     0.000     0.007     0.045     0.001     0.000 .00000E+00 0.000E+00 0.000E+00 0.000E+00 0.000E+00 0.000E+00
BIGSUB  26        0    4.77202E+01    67.800     0.000   127.280    74.416   132.383     0.000     0.383     0.312     1.167     0.007     0.029     0.004     0.019     0.000     0.005     0.440     0.002     0.000 .00000E+00 0.000E+00 0.000E+00 0.000E+00 0.000E+00 0.000E+00
BIGSUB  27        0    4.52866E+01    67.800     0.000   127.303    72.276   115.990     0.000     0.104     0.509     2.284     0.005     0.019     0.002     0.003     0.000     0.003     1.611     0.008     0.000 .00000E+00 0.000E+00 0.000E+00 0.000E+00 0.000E+00 0.000E+00
BIGSUB  28        0    4.66735E+01    67.800     0.000   127.308    68.151    95.870     0.001     0.529     0.943     4.194     0.016     0.076     0.009     0.031     0.000     0.010     2.614     0.011     0.000 .00000E+00 0.000E+00 0.000E+00 0.000E+00 0.000E+00 0.000E+00
BIGSUB  29        0    4.53568E+01    67.800     0.000   127.455    68.951   128.199     0.000     0.490     0.798     1.804     0.010     0.030     0.004     0.028     0.000     0.006     0.419     0.003     0.000 .00000E+00 0.000E+00 0.000E+00 0.000E+00 0.000E+00 0.000E+00
BIGSUB  30        0    4.71964E+01    67.800     0.000   127.332    72.166   143.178     0.000     0.535     0.285     0.898     0.010     0.039     0.005     0.066     0.000     0.007     0.049     0.001     0.000 .00000E+00 0.000E+00 0.000E+00 0.000E+00 0.000E+00 0.000E+00
BIGSUB  31        0    4.10916E+02    67.800     0.000   127.328    72.982   109.381     0.013     0.418     0.684     1.747     0.009     0.037     0.005     0.017     0.000     0.006     0.568     0.004     0.000 .00000E+00 0.000E+00 0.000E+00 0.000E+00 0.000E+00 0.000E+00
BIGSUB  32        0    4.49482E+01    67.800     0.000   127.337    75.103   140.576     0.043     0.115     0.336     0.953     0.002     0.006     0.001     0.001     0.000     0.001     0.464     0.003     0.000 .00000E+00 0.000E+00 0.000E+00 0.000E+00 0.000E+00 0.000E+00
BIGSUB  33        0    4.62595E+01    67.800     0.000   127.357    68.940    93.759     0.235     0.148     1.226     3.588     0.003     0.012     0.001     0.000     0.000     0.002     2.076     0.010     0.001 .00000E+00 0.000E+00 0.000E+00 0.000E+00 0.000E+00 0.000E+00
BIGSUB  34        0    4.52668E+01    67.800     0.000   127.383    69.542   182.736     0.000     0.311     0.225     0.594     0.003     0.015     0.002     0.025     0.000     0.002     0.034     0.001     0.000 .00000E+00 0.000E+00 0.000E+00 0.000E+00 0.000E+00 0.000E+00
BIGSUB  35        0    4.58149E+01    67.800     0.000   127.336    69.802   145.811     0.000     0.674     0.350     1.096     0.016     0.058     0.007     0.091     0.000     0.010     0.037     0.001     0.000 .00000E+00 0.000E+00 0.000E+00 0.000E+00 0.000E+00 0.000E+00
BIGSUB  36        0    4.21843E+01    67.800     0.000   127.337    71.890    72.601     0.000     0.576     1.573     2.955     0.013     0.047     0.006     0.000     0.000     0.007     0.611     0.003     0.000 .00000E+00 0.000E+00 0.000E+00 0.000E+00 0.000E+00 0.000E+00
BIGSUB  37        0    4.92880E+01    67.800     0.000   127.292    71.862   115.752     0.084     0.297     0.722     2.109     0.004     0.015     0.002     0.025     0.000     0.003     1.008     0.007     0.000 .00000E+00 0.000E+00 0.000E+00 0.000E+00 0.000E+00 0.000E+00
BIGSUB  38        0    4.40320E+00    67.800     0.000   127.372    67.480   161.443     0.042     0.217     0.861     3.079     0.004     0.023     0.003     0.000     0.000     0.003     1.899     0.008     0.000 .00000E+00 0.000E+00 0.000E+00 0.000E+00 0.000E+00 0.000E+00
BIGSUB  39        0    4.51426E+01    67.800     0.000   127.319    74.857   149.592     0.004     0.231     0.217     0.622     0.004     0.015     0.002     0.016     0.000     0.003     0.152     0.002     0.000 .00000E+00 0.000E+00 0.000E+00 0.000E+00 0.000E+00 0.000E+00
BIGSUB  40        0    4.14094E+01    67.800     0.000   127.341    67.602   180.604     0.000     0.543     0.222     0.812     0.005     0.020     0.003     0.066     0.000     0.004     0.021     0.000     0.000 .00000E+00 0.000E+00 0.000E+00 0.000E+00 0.000E+00 0.000E+00
BIGSUB  41        0    4.49059E+01    67.800     0.000   127.322    66.237    90.735     0.000     0.428     1.149     4.959     0.019     0.112     0.014     0.031     0.000     0.011     3.244     0.017     0.000 .00000E+00 0.000E+00 0.000E+00 0.000E+00 0.000E+00 0.000E+00
BIGSUB  42        0    4.53550E+00    67.800     0.000   127.369    69.200   153.510     0.000     0.367     1.064     2.531     0.008     0.034     0.004     0.000     0.000     0.004     0.968     0.003     0.000 .00000E+00 0.000E+00 0.000E+00 0.000E+00 0.000E+00 0.000E+00
BIGSUB  43        0    4.42975E+01    67.800     0.000   127.368    70.116   120.010     0.083     0.172     0.862     2.961     0.003     0.017     0.002     0.018     0.000     0.002     1.827     0.011     0.000 .00000E+00 0.000E+00 0.000E+00 0.000E+00 0.000E+00 0.000E+00
BIGSUB  44        0    4.13779E+01    67.800     0.000   127.326    69.493   124.783     0.000     0.444     0.494     1.916     0.006     0.027     0.003     0.050     0.000     0.005     0.923     0.008     0.000 .00000E+00 0.000E+00 0.000E+00 0.000E+00 0.000E+00 0.000E+00
BIGSUB  45        0    4.38196E+01    67.800     0.000   127.346    71.154   204.206     0.000     0.169     0.073     0.301     0.002     0.008     0.001     0.017     0.000     0.001     0.050     0.001     0.000 .00000E+00 0.000E+00 0.000E+00 0.000E+00 0.000E+00 0.000E+00
BIGSUB  46        0    4.34290E+00    67.800     0.000   127.312    61.099   183.269     0.000     0.446     0.599     3.427     0.024     0.124     0.015     0.000     0.000     0.013     2.315     0.003     0.000 .00000E+00 0.000E+00 0.000E+00 0.000E+00 0.000E+00 0.000E+00
BIGSUB  47        0    4.15453E+01    67.800     0.000   127.319    66.770   127.102     0.116     0.339     0.719     4.796     0.009     0.067     0.008     0.039     0.000     0.007     3.659     0.014     0.000 .00000E+00 0.000E+00 0.000E+00 0.000E+00 0.000E+00 0.000E+00
BIGSUB  48        0    4.74862E+01    67.800     0.000   127.478    71.403   133.102     0.000     0.207     0.596     2.386     0.003     0.010     0.001     0.011     0.000     0.002     1.511     0.007     0.000 .00000E+00 0.000E+00 0.000E+00 0.000E+00 0.000E+00 0.000E+00
BIGSUB  49        0    4.83700E+00    67.800     0.000   127.332    65.103   126.667     0.001     0.900     0.699     4.911     0.014     0.057     0.007     0.108     0.000     0.010     3.233     0.025     0.000 .00000E+00 0.000E+00 0.000E+00 0.000E+00 0.000E+00 0.000E+00
BIGSUB  50        0    4.20913E+02    67.800     0.000   127.399    73.198   157.271     0.014     0.537     0.374     1.141     0.007     0.027     0.003     0.049     0.000     0.005     0.187     0.002     0.000 .00000E+00 0.000E+00 0.000E+00 0.000E+00 0.000E+00 0.000E+00
BIGSUB  51        0    4.43704E+01    67.800     0.000   127.303    65.885    97.719     0.000     0.256     1.182     4.594     0.011     0.068     0.008     0.011     0.000     0.007     3.012     0.016     0.000 .00000E+00 0.000E+00 0.000E+00 0.000E+00 0.000E+00 0.000E+00
BIGSUB  52        0    4.22449E+02    67.800     0.000   127.358    70.124    99.515     0.001     0.327     0.814     3.864     0.012     0.062     0.008     0.011     0.000     0.007     2.628     0.011     0.000 .00000E+00 0.000E+00 0.000E+00 0.000E+00 0.000E+00 0.000E+00
BIGSUB  53        0    4.13513E+02    67.800     0.000   127.333    72.184   128.789     0.000     0.206     0.412     2.066     0.003     0.010     0.001     0.019     0.000     0.002     1.399     0.007     0.000 .00000E+00 0.000E+00 0.000E+00 0.000E+00 0.000E+00 0.000E+00
BIGSUB  54        0    4.90270E+01    67.800     0.000   127.417    73.300   156.030     0.019     0.559     0.346     1.151     0.006     0.023     0.003     0.049     0.000     0.005     0.205     0.003     0.000 .00000E+00 0.000E+00 0.000E+00 0.000E+00 0.000E+00 0.000E+00
BIGSUB  55        0    4.42750E+01    67.800     0.000   127.310    64.897    96.846     0.000     0.222     1.114     5.188     0.008     0.052     0.006     0.003     0.000     0.005     3.719     0.015     0.000 .00000E+00 0.000E+00 0.000E+00 0.000E+00 0.000E+00 0.000E+00
BIGSUB  56        0    4.50850E+00    67.800     0.000   127.347    67.502   114.467     0.652     0.395     1.408     3.600     0.013     0.067     0.008     0.000     0.000     0.008     1.666     0.005     0.001 .00000E+00 0.000E+00 0.000E+00 0.000E+00 0.000E+00 0.000E+00
BIGSUB  57        0    4.23544E+01    67.800     0.000   127.347    72.591   105.043     0.000     0.152     0.896     2.560     0.006     0.014     0.002     0.000     0.000     0.003     1.402     0.009     0.000 .00000E+00 0.000E+00 0.000E+00 0.000E+00 0.000E+00 0.000E+00
BIGSUB  58        0    4.23490E+00    67.800     0.000   127.400    66.801   245.813     0.000     0.418     0.308     1.233     0.012     0.037     0.005     0.044     0.000     0.007     0.470     0.002     0.000 .00000E+00 0.000E+00 0.000E+00 0.000E+00 0.000E+00 0.000E+00
BIGSUB  59        0    4.10683E+01    67.800     0.000   127.318    64.320   114.790     0.000     0.225     1.008     5.420     0.009     0.056     0.007     0.000     0.000     0.005     4.068     0.015     0.000 .00000E+00 0.000E+00 0.000E+00 0.000E+00 0.000E+00 0.000E+00
BIGSUB  60        0    4.13680E+00    67.800     0.000   127.354    64.303   179.423     0.558     0.264     1.027     3.743     0.011     0.072     0.009     0.000     0.000     0.007     2.357     0.006     0.000 .00000E+00 0.000E+00 0.000E+00 0.000E+00 0.000E+00 0.000E+00
BIGSUB  61        0    4.27918E+01    67.800     0.000   127.352    69.366    94.578     0.115     0.187     1.193     3.535     0.003     0.009     0.001     0.000     0.000     0.002     2.014     0.013     0.000 .00000E+00 0.000E+00 0.000E+00 0.000E+00 0.000E+00 0.000E+00
BIGSUB  62        0    4.15489E+01    67.800     0.000   127.322    64.533   110.175     0.026     0.574     1.103     5.941     0.018     0.104     0.013     0.035     0.000     0.012     4.133     0.012     0.000 .00000E+00 0.000E+00 0.000E+00 0.000E+00 0.000E+00 0.000E+00
BIGSUB  63        0    4.62289E+01    67.800     0.000   127.350    69.217   107.291     0.129     0.342     1.257     3.108     0.008     0.034     0.004     0.000     0.000     0.005     1.363     0.006     0.000 .00000E+00 0.000E+00 0.000E+00 0.000E+00 0.000E+00 0.000E+00
BIGSUB  64        0    4.39510E+01    67.800     0.000   128.794    71.498    84.539     0.051     1.317     1.548     3.908     0.016     0.058     0.007     0.122     0.000     0.011     0.854     0.009     0.000 .00000E+00 0.000E+00 0.000E+00 0.000E+00 0.000E+00 0.000E+00
BIGSUB  65        0    4.95985E+01    67.800     0.000   127.399    69.638    99.237     0.000     0.264     1.166     3.149     0.005     0.014     0.002     0.000     0.000     0.003     1.577     0.008     0.000 .00000E+00 0.000E+00 0.000E+00 0.000E+00 0.000E+00 0.000E+00
BIGSUB  66        0    4.11034E+01    67.800     0.000   127.780    70.313   211.072     0.095     0.800     0.295     1.644     0.008     0.032     0.004     0.075     0.000     0.006     0.517     0.004     0.000 .00000E+00 0.000E+00 0.000E+00 0.000E+00 0.000E+00 0.000E+00
BIGSUB  67        0    4.69003E+01    67.800     0.000   127.607    69.499   166.429     0.000     0.414     0.616     1.566     0.009     0.026     0.003     0.014     0.000     0.005     0.461     0.002     0.000 .00000E+00 0.000E+00 0.000E+00 0.000E+00 0.000E+00 0.000E+00
BIGSUB  68        0    4.12861E+01    67.800     0.000   127.605    66.921   198.531     0.000     0.761     0.679     2.050     0.007     0.058     0.007     0.007     0.000     0.006     0.528     0.003     0.000 .00000E+00 0.000E+00 0.000E+00 0.000E+00 0.000E+00 0.000E+00
BIGSUB  69        0    4.24930E+00    67.800     0.000   127.400    67.349   234.273     0.000     0.325     0.439     1.141     0.002     0.019     0.002     0.000     0.000     0.002     0.323     0.002     0.000 .00000E+00 0.000E+00 0.000E+00 0.000E+00 0.000E+00 0.000E+00
BIGSUB   1        0    5.22436E+02   191.000     0.000   154.408   123.021   119.418    33.550    31.021    15.427    48.768     0.166     0.692     0.085     0.025     0.004     0.112     2.183     0.006     0.004 .00000E+00 0.000E+00 0.000E+00 0.000E+00 0.000E+00 0.000E+00
BIGSUB   2        0    5.92592E+01   191.000     0.000   154.408   126.215   160.351    18.085    21.475     8.232    32.573     0.069     0.401     0.049     0.009     0.003     0.052     2.790     0.008     0.003 .00000E+00 0.000E+00 0.000E+00 0.000E+00 0.000E+00 0.000E+00
BIGSUB   3        0    5.59202E+01   191.000     0.000   154.626   126.360   143.555    21.344    24.738     9.754    35.419     0.031     0.114     0.014     0.015     0.003     0.019     0.811     0.002     0.002 .00000E+00 0.000E+00 0.000E+00 0.000E+00 0.000E+00 0.000E+00
BIGSUB   4        0    5.63702E+01   191.000     0.000   154.421   130.092   181.685     9.703    18.157     4.322    23.147     0.272     0.766     0.094     0.024     0.002     0.135     0.635     0.001     0.001 .00000E+00 0.000E+00 0.000E+00 0.000E+00 0.000E+00 0.000E+00
BIGSUB   5        0    5.94950E+01   191.000     0.000   154.418   130.681   204.229     4.613    14.625     2.010    16.961     0.351     1.027     0.126     0.010     0.002     0.178     0.311     0.001     0.000 .00000E+00 0.000E+00 0.000E+00 0.000E+00 0.000E+00 0.000E+00
BIGSUB   6        0    5.85689E+01   191.000     0.000   154.440   122.009   167.489    19.346    30.292     8.605    39.090     0.610     2.237     0.274     0.021     0.004     0.410     0.107     0.003     0.009 .00000E+00 0.000E+00 0.000E+00 0.000E+00 0.000E+00 0.000E+00
BIGSUB   7        0    5.29949E+02   191.000     0.000   154.469   122.885   106.518    30.897    36.505    14.051    51.171     0.443     1.692     0.207     0.017     0.004     0.309     0.455     0.004     0.009 .00000E+00 0.000E+00 0.000E+00 0.000E+00 0.000E+00 0.000E+00
BIGSUB   8        0    5.48726E+01   191.000     0.000   154.415   117.094    69.371    37.726    32.397    17.544    60.318     0.143     1.361     0.167     0.003     0.006     0.131    10.171     0.024     0.011 .00000E+00 0.000E+00 0.000E+00 0.000E+00 0.000E+00 0.000E+00
BIGSUB   9        0    5.53460E+01   191.000     0.000   154.433   123.937   107.941    31.415    30.242    14.559    45.940     0.063     0.204     0.025     0.000     0.003     0.036     0.947     0.002     0.004 .00000E+00 0.000E+00 0.000E+00 0.000E+00 0.000E+00 0.000E+00
BIGSUB  10        0    5.86796E+01   191.000     0.000   154.428   130.398   172.322     9.199    17.804     4.072    23.592     0.191     0.662     0.081     0.003     0.002     0.107     1.684     0.002     0.001 .00000E+00 0.000E+00 0.000E+00 0.000E+00 0.000E+00 0.000E+00
BIGSUB  11        0    5.37266E+02   191.000     0.000   154.438   128.247   198.001     9.400    16.469     4.213    21.516     0.173     0.612     0.075     0.013     0.002     0.101     0.795     0.002     0.001 .00000E+00 0.000E+00 0.000E+00 0.000E+00 0.000E+00 0.000E+00
[...]
BIGSUB  67        0    5.69003E+01   108.500     0.000   115.839    90.872   189.871     1.616     2.966     2.344     6.269     0.079     0.211     0.027     0.021     0.001     0.038     0.852     0.002     0.000 .00000E+00 0.000E+00 0.000E+00 0.000E+00 0.000E+00 0.000E+00
BIGSUB  68        0    5.12861E+01   108.500     0.000   115.785    89.509   235.939     1.834     2.496     2.584     6.208     0.018     0.115     0.014     0.008     0.000     0.012     0.997     0.005     0.004 .00000E+00 0.000E+00 0.000E+00 0.000E+00 0.000E+00 0.000E+00
BIGSUB  69        0    5.24930E+00   108.500     0.000   115.337    89.637   258.350     1.446     1.273     1.653     3.661     0.005     0.054     0.007     0.000     0.000     0.005     0.649     0.013     0.000 .00000E+00 0.000E+00 0.000E+00 0.000E+00 0.000E+00 0.000E+00
BIGSUB   1        0    6.22436E+02    35.700     0.000   198.390   106.218    60.901     0.000     0.057     3.205     4.407     0.000     0.000     0.000     0.000     0.000     0.000     0.930     0.004     0.000 .00000E+00 0.000E+00 0.000E+00 0.000E+00 0.000E+00 0.000E+00
BIGSUB   2        0    6.92592E+01    35.700     0.000   198.400   110.561    81.918     0.000     0.031     1.517     2.663     0.000     0.000     0.000     0.000     0.000     0.000     1.014     0.001     0.000 .00000E+00 0.000E+00 0.000E+00 0.000E+00 0.000E+00 0.000E+00
BIGSUB   3        0    6.59202E+01    35.700     0.000   198.728   103.464    77.507     0.000     0.059     1.697     2.259     0.000     0.000     0.000     0.000     0.000     0.000     0.387     0.001     0.000 .00000E+00 0.000E+00 0.000E+00 0.000E+00 0.000E+00 0.000E+00
BIGSUB   4        0    6.63702E+01    35.700     0.000   198.471   121.898    83.732     0.000     0.054     0.644     1.049     0.000     0.000     0.000     0.000     0.000     0.000     0.309     0.003     0.000 .00000E+00 0.000E+00 0.000E+00 0.000E+00 0.000E+00 0.000E+00
BIGSUB   5        0    6.94950E+01    35.700     0.000   198.457   128.588    93.774     0.000     0.025     0.159     0.342     0.000     0.000     0.000     0.000     0.000     0.000     0.146     0.004     0.000 .00000E+00 0.000E+00 0.000E+00 0.000E+00 0.000E+00 0.000E+00
BIGSUB   6        0    6.85689E+01    35.700     0.000   198.514   121.731   103.355     0.000     0.037     0.956     1.128     0.000     0.000     0.000     0.000     0.000     0.000     0.053     0.001     0.000 .00000E+00 0.000E+00 0.000E+00 0.000E+00 0.000E+00 0.000E+00
BIGSUB   7        0    6.29949E+02    35.700     0.000   198.590   103.726    60.911     0.000     0.039     2.049     2.453     0.000     0.000     0.000     0.000     0.000     0.000     0.207     0.001     0.000 .00000E+00 0.000E+00 0.000E+00 0.000E+00 0.000E+00 0.000E+00
BIGSUB   8        0    6.48726E+01    35.700     0.000   198.444    85.581    42.888     0.000     0.057     3.436     7.829     0.000     0.000     0.000     0.000     0.000     0.000     4.093     0.009     0.000 .00000E+00 0.000E+00 0.000E+00 0.000E+00 0.000E+00 0.000E+00
BIGSUB   9        0    6.53460E+01    35.700     0.000   198.544    91.741    60.155     0.000     0.000     3.023     3.630     0.000     0.000     0.000     0.000     0.000     0.000     0.406     0.000     0.000 .00000E+00 0.000E+00 0.000E+00 0.000E+00 0.000E+00 0.000E+00
BIGSUB  10        0    6.86796E+01    35.700     0.000   198.512   119.575    79.179     0.000     0.013     0.500     1.234     0.000     0.000     0.000     0.000     0.000     0.000     0.689     0.001     0.000 .00000E+00 0.000E+00 0.000E+00 0.000E+00 0.000E+00 0.000E+00
BIGSUB  11        0    6.37266E+02    35.700     0.000   198.480   121.266   101.755     0.000     0.039     0.633     1.056     0.000     0.000     0.000     0.000     0.000     0.000     0.341     0.001     0.000 .00000E+00 0.000E+00 0.000E+00 0.000E+00 0.000E+00 0.000E+00
BIGSUB  12        0    6.39177E+01    35.700     0.000   198.544   112.855    95.690     0.000     0.010     1.012     1.195     0.000     0.000     0.000     0.000     0.000     0.000     0.090     0.001     0.000 .00000E+00 0.000E+00 0.000E+00 0.000E+00 0.000E+00 0.000E+00
BIGSUB  13        0    6.47988E+01    35.700     0.000   198.559   129.321   113.980     0.000     0.036     0.495     0.608     0.000     0.000     0.000     0.000     0.000     0.000     0.027     0.001     0.000 .00000E+00 0.000E+00 0.000E+00 0.000E+00 0.000E+00 0.000E+00
BIGSUB  14        0    6.95265E+01    35.700     0.000   198.507   132.345   114.219     0.000     0.040     0.380     0.481     0.000     0.000     0.000     0.000     0.000     0.000     0.022     0.001     0.000 .00000E+00 0.000E+00 0.000E+00 0.000E+00 0.000E+00 0.000E+00
BIGSUB  15        0    6.36414E+01    35.700     0.000   198.451    92.213    46.660     0.000     0.062     2.924     6.362     0.000     0.000     0.000     0.000     0.000     0.000     3.171     0.015     0.000 .00000E+00 0.000E+00 0.000E+00 0.000E+00 0.000E+00 0.000E+00
BIGSUB  16        0    6.84042E+01    35.700     0.000   198.415   105.764    77.929     0.000     0.001     2.350     3.925     0.000     0.000     0.000     0.000     0.000     0.000     1.418     0.001     0.000 .00000E+00 0.000E+00 0.000E+00 0.000E+00 0.000E+00 0.000E+00
BIGSUB  17        0    6.49545E+01    35.700     0.000   198.712   107.950    75.984     0.000     0.007     1.436     1.764     0.000     0.000     0.000     0.000     0.000     0.000     0.216     0.001     0.000 .00000E+00 0.000E+00 0.000E+00 0.000E+00 0.000E+00 0.000E+00
BIGSUB  18        0    6.44775E+01    35.700     0.000   198.464   129.785    84.584     0.000     0.063     0.526     0.917     0.000     0.000     0.000     0.000     0.000     0.000     0.290     0.006     0.000 .00000E+00 0.000E+00 0.000E+00 0.000E+00 0.000E+00 0.000E+00
BIGSUB  19        0    6.80001E+01    35.700     0.000   198.881    89.478    32.836     0.000     0.044     2.979     3.576     0.000     0.000     0.000     0.000     0.000     0.000     0.336     0.001     0.000 .00000E+00 0.000E+00 0.000E+00 0.000E+00 0.000E+00 0.000E+00
BIGSUB  20        0    6.13406E+02    35.700     0.000   198.688   119.085   105.960     0.000     0.018     1.253     1.445     0.000     0.000     0.000     0.000     0.000     0.000     0.082     0.001     0.000 .00000E+00 0.000E+00 0.000E+00 0.000E+00 0.000E+00 0.000E+00
BIGSUB  21        0    6.21888E+01    35.700     0.000   198.429    86.934    40.303     0.000     0.037     3.733     7.538     0.000     0.000     0.000     0.000     0.000     0.000     3.495     0.003     0.000 .00000E+00 0.000E+00 0.000E+00 0.000E+00 0.000E+00 0.000E+00
BIGSUB  22        0    6.25155E+01    35.700     0.000   199.101    89.354    64.489     0.000     0.048     3.370     4.056     0.000     0.000     0.000     0.000     0.000     0.000     0.414     0.001     0.000 .00000E+00 0.000E+00 0.000E+00 0.000E+00 0.000E+00 0.000E+00
BIGSUB  23        0    6.17601E+02    35.700     0.000   198.442   114.366    77.076     0.000     0.024     1.567     2.395     0.000     0.000     0.000     0.000     0.000     0.000     0.697     0.001     0.000 .00000E+00 0.000E+00 0.000E+00 0.000E+00 0.000E+00 0.000E+00
BIGSUB  24        0    6.28026E+01    35.700     0.000   200.352    89.185    44.811     0.000     0.006     3.477     4.219     0.000     0.000     0.000     0.000     0.000     0.000     0.495     0.001     0.000 .00000E+00 0.000E+00 0.000E+00 0.000E+00 0.000E+00 0.000E+00
BIGSUB  25        0    6.13199E+02    35.700     0.000   198.483   121.509    96.863     0.000     0.049     0.404     0.572     0.000     0.000     0.000     0.000     0.000     0.000     0.066     0.002     0.000 .00000E+00 0.000E+00 0.000E+00 0.000E+00 0.000E+00 0.000E+00
BIGSUB  26        0    6.77202E+01    35.700     0.000   198.393   113.343    71.856     0.000     0.045     1.873     2.489     0.000     0.000     0.000     0.000     0.000     0.000     0.450     0.001     0.000 .00000E+00 0.000E+00 0.000E+00 0.000E+00 0.000E+00 0.000E+00
BIGSUB  27        0    6.52866E+01    35.700     0.000   198.439   103.110    69.891     0.000     0.006     1.737     3.691     0.000     0.000     0.000     0.000     0.000     0.000     1.823     0.002     0.000 .00000E+00 0.000E+00 0.000E+00 0.000E+00 0.000E+00 0.000E+00
BIGSUB  28        0    6.66735E+01    35.700     0.000   198.452    92.985    47.573     0.000     0.061     3.647     6.582     0.000     0.000     0.000     0.000     0.000     0.000     2.615     0.008     0.000 .00000E+00 0.000E+00 0.000E+00 0.000E+00 0.000E+00 0.000E+00
BIGSUB  29        0    6.53568E+01    35.700     0.000   198.675   108.933    88.143     0.000     0.041     2.083     2.814     0.000     0.000     0.000     0.000     0.000     0.000     0.546     0.001     0.000 .00000E+00 0.000E+00 0.000E+00 0.000E+00 0.000E+00 0.000E+00
BIGSUB  30        0    6.71964E+01    35.700     0.000   198.489   126.387    86.110     0.000     0.058     0.399     0.575     0.000     0.000     0.000     0.000     0.000     0.000     0.071     0.002     0.000 .00000E+00 0.000E+00 0.000E+00 0.000E+00 0.000E+00 0.000E+00
BIGSUB  31        0    6.10916E+02    35.700     0.000   198.503   104.402    60.679     0.000     0.019     1.855     2.632     0.000     0.000     0.000     0.000     0.000     0.000     0.618     0.001     0.000 .00000E+00 0.000E+00 0.000E+00 0.000E+00 0.000E+00 0.000E+00
BIGSUB  32        0    6.49482E+01    35.700     0.000   198.515   118.888    81.516     0.000     0.013     1.190     1.848     0.000     0.000     0.000     0.000     0.000     0.000     0.564     0.002     0.000 .00000E+00 0.000E+00 0.000E+00 0.000E+00 0.000E+00 0.000E+00
BIGSUB  33        0    6.62595E+01    35.700     0.000   198.559    89.432    50.262     0.000     0.000     3.714     6.334     0.000     0.000     0.000     0.000     0.000     0.000     2.350     0.001     0.000 .00000E+00 0.000E+00 0.000E+00 0.000E+00 0.000E+00 0.000E+00
BIGSUB  34        0    6.52668E+01    35.700     0.000   198.612   122.534   132.671     0.000     0.041     0.411     0.542     0.000     0.000     0.000     0.000     0.000     0.000     0.053     0.001     0.000 .00000E+00 0.000E+00 0.000E+00 0.000E+00 0.000E+00 0.000E+00
BIGSUB  35        0    6.58149E+01    35.700     0.000   198.497   125.840    97.411     0.000     0.050     0.548     0.714     0.000     0.000     0.000     0.000     0.000     0.000     0.054     0.002     0.000 .00000E+00 0.000E+00 0.000E+00 0.000E+00 0.000E+00 0.000E+00
BIGSUB  36        0    6.21843E+01    35.700     0.000   198.522    83.080    29.688     0.000     0.000     4.077     4.972     0.000     0.000     0.000     0.000     0.000     0.000     0.614     0.000     0.000 .00000E+00 0.000E+00 0.000E+00 0.000E+00 0.000E+00 0.000E+00
BIGSUB  37        0    6.92880E+01    35.700     0.000   198.415   106.648    66.125     0.000     0.055     2.676     4.203     0.000     0.000     0.000     0.000     0.000     0.000     1.284     0.006     0.000 .00000E+00 0.000E+00 0.000E+00 0.000E+00 0.000E+00 0.000E+00
BIGSUB  38        0    6.40320E+00    35.700     0.000   198.593    98.710    90.662     0.000     0.000     2.254     4.534     0.000     0.000     0.000     0.000     0.000     0.000     2.113     0.001     0.000 .00000E+00 0.000E+00 0.000E+00 0.000E+00 0.000E+00 0.000E+00
BIGSUB  39        0    6.51426E+01    35.700     0.000   198.463   122.482    90.683     0.000     0.027     0.323     0.593     0.000     0.000     0.000     0.000     0.000     0.000     0.207     0.003     0.000 .00000E+00 0.000E+00 0.000E+00 0.000E+00 0.000E+00 0.000E+00
BIGSUB  40        0    6.14094E+01    35.700     0.000   198.512   131.810   135.533     0.000     0.096     0.487     0.657     0.000     0.000     0.000     0.000     0.000     0.000     0.032     0.001     0.000 .00000E+00 0.000E+00 0.000E+00 0.000E+00 0.000E+00 0.000E+00
BIGSUB  41        0    6.49059E+01    35.700     0.000   198.470    89.162    50.431     0.000     0.051     3.748     7.809     0.000     0.000     0.000     0.000     0.000     0.000     3.755     0.004     0.000 .00000E+00 0.000E+00 0.000E+00 0.000E+00 0.000E+00 0.000E+00
BIGSUB  42        0    6.53550E+00    35.700     0.000   198.588    96.373    84.869     0.000     0.000     2.778     3.989     0.000     0.000     0.000     0.000     0.000     0.000     1.016     0.000     0.000 .00000E+00 0.000E+00 0.000E+00 0.000E+00 0.000E+00 0.000E+00
BIGSUB  43        0    6.42975E+01    35.700     0.000   198.582    98.268    66.282     0.000     0.033     2.496     4.856     0.000     0.000     0.000     0.000     0.000     0.000     2.141     0.010     0.000 .00000E+00 0.000E+00 0.000E+00 0.000E+00 0.000E+00 0.000E+00
BIGSUB  44        0    6.13779E+01    35.700     0.000   198.481   108.896    86.299     0.000     0.081     1.218     2.605     0.000     0.000     0.000     0.000     0.000     0.000     1.208     0.013     0.000 .00000E+00 0.000E+00 0.000E+00 0.000E+00 0.000E+00 0.000E+00
BIGSUB  45        0    6.38196E+01    35.700     0.000   198.523   135.072   157.668     0.000     0.037     0.136     0.261     0.000     0.000     0.000     0.000     0.000     0.000     0.075     0.001     0.000 .00000E+00 0.000E+00 0.000E+00 0.000E+00 0.000E+00 0.000E+00
BIGSUB  46        0    6.34290E+00    35.700     0.000   198.466   108.464   140.967     0.000     0.000     2.427     4.533     0.000     0.000     0.000     0.000     0.000     0.000     1.940     0.000     0.000 .00000E+00 0.000E+00 0.000E+00 0.000E+00 0.000E+00 0.000E+00
BIGSUB  47        0    6.15453E+01    35.700     0.000   198.477    97.761    78.909     0.000     0.077     1.354     5.264     0.000     0.000     0.000     0.000     0.000     0.000     3.698     0.012     0.000 .00000E+00 0.000E+00 0.000E+00 0.000E+00 0.000E+00 0.000E+00
BIGSUB  48        0    6.74862E+01    35.700     0.000   198.746   104.735    79.381     0.000     0.023     1.744     3.720     0.000     0.000     0.000     0.000     0.000     0.000     1.834     0.005     0.000 .00000E+00 0.000E+00 0.000E+00 0.000E+00 0.000E+00 0.000E+00
BIGSUB  49        0    6.83700E+00    35.700     0.000   198.496    99.054    78.062     0.000     0.202     2.259     6.569     0.000     0.000     0.000     0.000     0.000     0.000     3.943     0.045     0.001 .00000E+00 0.000E+00 0.000E+00 0.000E+00 0.000E+00 0.000E+00
BIGSUB  50        0    6.20913E+02    35.700     0.000   198.613   119.559    95.818     0.000     0.112     0.983     1.411     0.000     0.000     0.000     0.000     0.000     0.000     0.244     0.006     0.000 .00000E+00 0.000E+00 0.000E+00 0.000E+00 0.000E+00 0.000E+00
BIGSUB  51        0    6.43704E+01    35.700     0.000   198.447    88.935    59.529     0.000     0.020     3.850     7.825     0.000     0.000     0.000     0.000     0.000     0.000     3.684     0.002     0.000 .00000E+00 0.000E+00 0.000E+00 0.000E+00 0.000E+00 0.000E+00
BIGSUB  52        0    6.22449E+02    35.700     0.000   198.540    95.660    48.115     0.000     0.024     2.317     5.323     0.000     0.000     0.000     0.000     0.000     0.000     2.800     0.003     0.000 .00000E+00 0.000E+00 0.000E+00 0.000E+00 0.000E+00 0.000E+00
BIGSUB  53        0    6.13513E+02    35.700     0.000   198.500   108.975    78.981     0.000     0.035     1.244     3.049     0.000     0.000     0.000     0.000     0.000     0.000     1.683     0.004     0.000 .00000E+00 0.000E+00 0.000E+00 0.000E+00 0.000E+00 0.000E+00
BIGSUB  54        0    6.90270E+01    35.700     0.000   198.644   114.851    98.037     0.000     0.138     0.910     1.345     0.000     0.000     0.000     0.000     0.000     0.000     0.237     0.002     0.000 .00000E+00 0.000E+00 0.000E+00 0.000E+00 0.000E+00 0.000E+00
BIGSUB  55        0    6.42750E+01    35.700     0.000   198.460    87.887    57.755     0.000     0.006     3.379     7.651     0.000     0.000     0.000     0.000     0.000     0.000     4.009     0.002     0.000 .00000E+00 0.000E+00 0.000E+00 0.000E+00 0.000E+00 0.000E+00
BIGSUB  56        0    6.50850E+00    35.700     0.000   198.543    91.070    57.114     0.000     0.000     4.252     5.885     0.000     0.000     0.000     0.000     0.000     0.000     1.319     0.000     0.000 .00000E+00 0.000E+00 0.000E+00 0.000E+00 0.000E+00 0.000E+00
BIGSUB  57        0    6.23544E+01    35.700     0.000   198.531    96.909    50.822     0.000     0.000     2.770     4.761     0.000     0.000     0.000     0.000     0.000     0.000     1.805     0.001     0.000 .00000E+00 0.000E+00 0.000E+00 0.000E+00 0.000E+00 0.000E+00
BIGSUB  58        0    6.23490E+00    35.700     0.000   198.646   129.603   192.891     0.000     0.090     0.779     1.553     0.000     0.000     0.000     0.000     0.000     0.000     0.633     0.016     0.000 .00000E+00 0.000E+00 0.000E+00 0.000E+00 0.000E+00 0.000E+00
BIGSUB  59        0    6.10683E+01    35.700     0.000   198.478    90.001    66.391     0.000     0.000     3.049     7.465     0.000     0.000     0.000     0.000     0.000     0.000     4.188     0.002     0.000 .00000E+00 0.000E+00 0.000E+00 0.000E+00 0.000E+00 0.000E+00
BIGSUB  60        0    6.13680E+00    35.700     0.000   198.559    99.912   103.279     0.000     0.000     2.235     4.566     0.000     0.000     0.000     0.000     0.000     0.000     2.156     0.001     0.000 .00000E+00 0.000E+00 0.000E+00 0.000E+00 0.000E+00 0.000E+00
BIGSUB  61        0    6.27918E+01    35.700     0.000   198.544    89.304    50.345     0.000     0.000     3.571     6.403     0.000     0.000     0.000     0.000     0.000     0.000     2.593     0.001     0.000 .00000E+00 0.000E+00 0.000E+00 0.000E+00 0.000E+00 0.000E+00
BIGSUB  62        0    6.15489E+01    35.700     0.000   198.485    87.586    59.913     0.000     0.096     3.702     7.857     0.000     0.000     0.000     0.000     0.000     0.000     3.795     0.013     0.000 .00000E+00 0.000E+00 0.000E+00 0.000E+00 0.000E+00 0.000E+00
BIGSUB  63        0    6.62289E+01    35.700     0.000   198.544    89.774    57.783     0.000     0.000     3.825     5.604     0.000     0.000     0.000     0.000     0.000     0.000     1.515     0.001     0.000 .00000E+00 0.000E+00 0.000E+00 0.000E+00 0.000E+00 0.000E+00
BIGSUB  64        0    6.39510E+01    35.700     0.000   200.646    87.175    38.391     0.000     0.260     3.716     5.264     0.000     0.000     0.000     0.000     0.000     0.000     1.020     0.021     0.001 .00000E+00 0.000E+00 0.000E+00 0.000E+00 0.000E+00 0.000E+00
BIGSUB  65        0    6.95985E+01    35.700     0.000   198.620    90.092    53.460     0.000     0.000     3.784     6.013     0.000     0.000     0.000     0.000     0.000     0.000     1.975     0.001     0.000 .00000E+00 0.000E+00 0.000E+00 0.000E+00 0.000E+00 0.000E+00
BIGSUB  66        0    6.11034E+01    35.700     0.000   199.187   122.423   143.220     0.000     0.264     0.577     1.507     0.000     0.000     0.000     0.000     0.000     0.000     0.613     0.016     0.001 .00000E+00 0.000E+00 0.000E+00 0.000E+00 0.000E+00 0.000E+00
BIGSUB  67        0    6.69003E+01    35.700     0.000   198.936   111.350   114.405     0.000     0.043     1.572     2.299     0.000     0.000     0.000     0.000     0.000     0.000     0.578     0.001     0.000 .00000E+00 0.000E+00 0.000E+00 0.000E+00 0.000E+00 0.000E+00
BIGSUB  68        0    6.12861E+01    35.700     0.000   198.939   115.337   156.438     0.000     0.016     1.808     2.523     0.000     0.000     0.000     0.000     0.000     0.000     0.569     0.006     0.002 .00000E+00 0.000E+00 0.000E+00 0.000E+00 0.000E+00 0.000E+00
BIGSUB  69        0    6.24930E+00    35.700     0.000   198.646   118.939   174.958     0.000     0.000     1.278     1.876     0.000     0.000     0.000     0.000     0.000     0.000     0.512     0.024     0.000 .00000E+00 0.000E+00 0.000E+00 0.000E+00 0.000E+00 0.000E+00
